<?xml version="1.0" encoding="UTF-8"?>

<!-- generated on Sat Feb 18 14:59:20 2023 by Eclipse SUMO netgenerate Version 1.4.0
<configuration xmlns:xsi="http://www.w3.org/2001/XMLSchema-instance" xsi:noNamespaceSchemaLocation="http://sumo.dlr.de/xsd/netgenerateConfiguration.xsd">

    <grid_network>
        <grid value="true"/>
        <grid.number value="5"/>
        <grid.length value="15"/>
    </grid_network>

    <output>
        <output-file value="grid.net"/>
    </output>

</configuration>
-->

<net version="1.3" junctionCornerDetail="5" limitTurnSpeed="5.50" xmlns:xsi="http://www.w3.org/2001/XMLSchema-instance" xsi:noNamespaceSchemaLocation="http://sumo.dlr.de/xsd/net_file.xsd">

    <location netOffset="0.00,0.00" convBoundary="0.00,0.00,60.00,60.00" origBoundary="0.00,0.00,60.00,60.00" projParameter="!"/>

    <edge id=":A0_0" function="internal">
        <lane id=":A0_0_0" index="0" speed="6.08" length="7.74" shape="-1.60,3.20 -1.30,1.10 -0.40,-0.40 1.10,-1.30 3.20,-1.60"/>
    </edge>
    <edge id=":A0_1" function="internal">
        <lane id=":A0_1_0" index="0" speed="3.90" length="2.58" shape="3.20,1.60 2.50,1.70 2.00,2.00 1.70,2.50 1.60,3.20"/>
    </edge>
    <edge id=":A1_0" function="internal">
        <lane id=":A1_0_0" index="0" speed="13.89" length="14.40" shape="-1.60,22.20 -1.60,7.80"/>
    </edge>
    <edge id=":A1_1" function="internal">
        <lane id=":A1_1_0" index="0" speed="8.00" length="5.93" shape="-1.60,22.20 -1.05,18.35 -0.00,16.60"/>
    </edge>
    <edge id=":A1_2" function="internal">
        <lane id=":A1_2_0" index="0" speed="3.65" length="2.34" shape="-1.60,22.20 -0.80,21.00 0.00,20.60"/>
    </edge>
    <edge id=":A1_9" function="internal">
        <lane id=":A1_9_0" index="0" speed="8.00" length="8.26" shape="-0.00,16.60 0.60,15.60 3.35,13.95 7.20,13.40"/>
    </edge>
    <edge id=":A1_10" function="internal">
        <lane id=":A1_10_0" index="0" speed="3.65" length="2.34" shape="0.00,20.60 0.80,21.00 1.60,22.20"/>
    </edge>
    <edge id=":A1_3" function="internal">
        <lane id=":A1_3_0" index="0" speed="6.51" length="9.03" shape="7.20,16.60 4.75,16.95 3.00,18.00 1.95,19.75 1.60,22.20"/>
    </edge>
    <edge id=":A1_4" function="internal">
        <lane id=":A1_4_0" index="0" speed="8.00" length="14.19" shape="7.20,16.60 3.35,16.05 0.60,14.40 -1.05,11.65 -1.60,7.80"/>
    </edge>
    <edge id=":A1_5" function="internal">
        <lane id=":A1_5_0" index="0" speed="3.65" length="4.67" shape="7.20,16.60 6.00,15.80 5.60,15.00 6.00,14.20 7.20,13.40"/>
    </edge>
    <edge id=":A1_6" function="internal">
        <lane id=":A1_6_0" index="0" speed="6.51" length="9.03" shape="1.60,7.80 1.95,10.25 3.00,12.00 4.75,13.05 7.20,13.40"/>
    </edge>
    <edge id=":A1_7" function="internal">
        <lane id=":A1_7_0" index="0" speed="13.89" length="14.40" shape="1.60,7.80 1.60,22.20"/>
    </edge>
    <edge id=":A1_8" function="internal">
        <lane id=":A1_8_0" index="0" speed="3.65" length="2.34" shape="1.60,7.80 0.80,9.00 0.00,9.40"/>
    </edge>
    <edge id=":A1_11" function="internal">
        <lane id=":A1_11_0" index="0" speed="3.65" length="2.34" shape="0.00,9.40 -0.80,9.00 -1.60,7.80"/>
    </edge>
    <edge id=":A2_0" function="internal">
        <lane id=":A2_0_0" index="0" speed="13.89" length="14.40" shape="-1.60,37.20 -1.60,22.80"/>
    </edge>
    <edge id=":A2_1" function="internal">
        <lane id=":A2_1_0" index="0" speed="8.00" length="5.93" shape="-1.60,37.20 -1.05,33.35 0.00,31.60"/>
    </edge>
    <edge id=":A2_2" function="internal">
        <lane id=":A2_2_0" index="0" speed="3.65" length="2.34" shape="-1.60,37.20 -0.80,36.00 0.00,35.60"/>
    </edge>
    <edge id=":A2_9" function="internal">
        <lane id=":A2_9_0" index="0" speed="8.00" length="8.26" shape="0.00,31.60 0.60,30.60 3.35,28.95 7.20,28.40"/>
    </edge>
    <edge id=":A2_10" function="internal">
        <lane id=":A2_10_0" index="0" speed="3.65" length="2.34" shape="0.00,35.60 0.80,36.00 1.60,37.20"/>
    </edge>
    <edge id=":A2_3" function="internal">
        <lane id=":A2_3_0" index="0" speed="6.51" length="9.03" shape="7.20,31.60 4.75,31.95 3.00,33.00 1.95,34.75 1.60,37.20"/>
    </edge>
    <edge id=":A2_4" function="internal">
        <lane id=":A2_4_0" index="0" speed="8.00" length="14.19" shape="7.20,31.60 3.35,31.05 0.60,29.40 -1.05,26.65 -1.60,22.80"/>
    </edge>
    <edge id=":A2_5" function="internal">
        <lane id=":A2_5_0" index="0" speed="3.65" length="4.67" shape="7.20,31.60 6.00,30.80 5.60,30.00 6.00,29.20 7.20,28.40"/>
    </edge>
    <edge id=":A2_6" function="internal">
        <lane id=":A2_6_0" index="0" speed="6.51" length="9.03" shape="1.60,22.80 1.95,25.25 3.00,27.00 4.75,28.05 7.20,28.40"/>
    </edge>
    <edge id=":A2_7" function="internal">
        <lane id=":A2_7_0" index="0" speed="13.89" length="14.40" shape="1.60,22.80 1.60,37.20"/>
    </edge>
    <edge id=":A2_8" function="internal">
        <lane id=":A2_8_0" index="0" speed="3.65" length="2.34" shape="1.60,22.80 0.80,24.00 0.00,24.40"/>
    </edge>
    <edge id=":A2_11" function="internal">
        <lane id=":A2_11_0" index="0" speed="3.65" length="2.34" shape="0.00,24.40 -0.80,24.00 -1.60,22.80"/>
    </edge>
    <edge id=":A3_0" function="internal">
        <lane id=":A3_0_0" index="0" speed="13.89" length="14.40" shape="-1.60,52.20 -1.60,37.80"/>
    </edge>
    <edge id=":A3_1" function="internal">
        <lane id=":A3_1_0" index="0" speed="8.00" length="5.93" shape="-1.60,52.20 -1.05,48.35 0.00,46.60"/>
    </edge>
    <edge id=":A3_2" function="internal">
        <lane id=":A3_2_0" index="0" speed="3.65" length="2.34" shape="-1.60,52.20 -0.80,51.00 0.00,50.60"/>
    </edge>
    <edge id=":A3_9" function="internal">
        <lane id=":A3_9_0" index="0" speed="8.00" length="8.26" shape="0.00,46.60 0.60,45.60 3.35,43.95 7.20,43.40"/>
    </edge>
    <edge id=":A3_10" function="internal">
        <lane id=":A3_10_0" index="0" speed="3.65" length="2.34" shape="0.00,50.60 0.80,51.00 1.60,52.20"/>
    </edge>
    <edge id=":A3_3" function="internal">
        <lane id=":A3_3_0" index="0" speed="6.51" length="9.03" shape="7.20,46.60 4.75,46.95 3.00,48.00 1.95,49.75 1.60,52.20"/>
    </edge>
    <edge id=":A3_4" function="internal">
        <lane id=":A3_4_0" index="0" speed="8.00" length="14.19" shape="7.20,46.60 3.35,46.05 0.60,44.40 -1.05,41.65 -1.60,37.80"/>
    </edge>
    <edge id=":A3_5" function="internal">
        <lane id=":A3_5_0" index="0" speed="3.65" length="4.67" shape="7.20,46.60 6.00,45.80 5.60,45.00 6.00,44.20 7.20,43.40"/>
    </edge>
    <edge id=":A3_6" function="internal">
        <lane id=":A3_6_0" index="0" speed="6.51" length="9.03" shape="1.60,37.80 1.95,40.25 3.00,42.00 4.75,43.05 7.20,43.40"/>
    </edge>
    <edge id=":A3_7" function="internal">
        <lane id=":A3_7_0" index="0" speed="13.89" length="14.40" shape="1.60,37.80 1.60,52.20"/>
    </edge>
    <edge id=":A3_8" function="internal">
        <lane id=":A3_8_0" index="0" speed="3.65" length="2.34" shape="1.60,37.80 0.80,39.00 0.00,39.40"/>
    </edge>
    <edge id=":A3_11" function="internal">
        <lane id=":A3_11_0" index="0" speed="3.65" length="2.34" shape="0.00,39.40 -0.80,39.00 -1.60,37.80"/>
    </edge>
    <edge id=":A4_0" function="internal">
        <lane id=":A4_0_0" index="0" speed="6.08" length="7.74" shape="3.20,61.60 1.10,61.30 -0.40,60.40 -1.30,58.90 -1.60,56.80"/>
    </edge>
    <edge id=":A4_1" function="internal">
        <lane id=":A4_1_0" index="0" speed="3.90" length="2.58" shape="1.60,56.80 1.70,57.50 2.00,58.00 2.50,58.30 3.20,58.40"/>
    </edge>
    <edge id=":B0_0" function="internal">
        <lane id=":B0_0_0" index="0" speed="6.51" length="9.03" shape="13.40,7.20 13.05,4.75 12.00,3.00 10.25,1.95 7.80,1.60"/>
    </edge>
    <edge id=":B0_1" function="internal">
        <lane id=":B0_1_0" index="0" speed="8.00" length="14.19" shape="13.40,7.20 13.95,3.35 15.60,0.60 18.35,-1.05 22.20,-1.60"/>
    </edge>
    <edge id=":B0_2" function="internal">
        <lane id=":B0_2_0" index="0" speed="3.65" length="4.67" shape="13.40,7.20 14.20,6.00 15.00,5.60 15.80,6.00 16.60,7.20"/>
    </edge>
    <edge id=":B0_3" function="internal">
        <lane id=":B0_3_0" index="0" speed="6.51" length="9.03" shape="22.20,1.60 19.75,1.95 18.00,3.00 16.95,4.75 16.60,7.20"/>
    </edge>
    <edge id=":B0_4" function="internal">
        <lane id=":B0_4_0" index="0" speed="13.89" length="14.40" shape="22.20,1.60 7.80,1.60"/>
    </edge>
    <edge id=":B0_5" function="internal">
        <lane id=":B0_5_0" index="0" speed="3.65" length="2.34" shape="22.20,1.60 21.00,0.80 20.60,0.00"/>
    </edge>
    <edge id=":B0_9" function="internal">
        <lane id=":B0_9_0" index="0" speed="3.65" length="2.34" shape="20.60,0.00 21.00,-0.80 22.20,-1.60"/>
    </edge>
    <edge id=":B0_6" function="internal">
        <lane id=":B0_6_0" index="0" speed="13.89" length="14.40" shape="7.80,-1.60 22.20,-1.60"/>
    </edge>
    <edge id=":B0_7" function="internal">
        <lane id=":B0_7_0" index="0" speed="8.00" length="5.93" shape="7.80,-1.60 11.65,-1.05 13.40,-0.00"/>
    </edge>
    <edge id=":B0_8" function="internal">
        <lane id=":B0_8_0" index="0" speed="3.65" length="2.34" shape="7.80,-1.60 9.00,-0.80 9.40,0.00"/>
    </edge>
    <edge id=":B0_10" function="internal">
        <lane id=":B0_10_0" index="0" speed="8.00" length="8.26" shape="13.40,-0.00 14.40,0.60 16.05,3.35 16.60,7.20"/>
    </edge>
    <edge id=":B0_11" function="internal">
        <lane id=":B0_11_0" index="0" speed="3.65" length="2.34" shape="9.40,0.00 9.00,0.80 7.80,1.60"/>
    </edge>
    <edge id=":B1_0" function="internal">
        <lane id=":B1_0_0" index="0" speed="6.51" length="9.03" shape="13.40,22.20 13.05,19.75 12.00,18.00 10.25,16.95 7.80,16.60"/>
    </edge>
    <edge id=":B1_1" function="internal">
        <lane id=":B1_1_0" index="0" speed="13.89" length="14.40" shape="13.40,22.20 13.40,7.80"/>
    </edge>
    <edge id=":B1_2" function="internal">
        <lane id=":B1_2_0" index="0" speed="8.00" length="5.93" shape="13.40,22.20 13.95,18.35 15.00,16.60"/>
    </edge>
    <edge id=":B1_3" function="internal">
        <lane id=":B1_3_0" index="0" speed="3.65" length="2.34" shape="13.40,22.20 14.20,21.00 15.00,20.60"/>
    </edge>
    <edge id=":B1_16" function="internal">
        <lane id=":B1_16_0" index="0" speed="8.00" length="8.26" shape="15.00,16.60 15.60,15.60 18.35,13.95 22.20,13.40"/>
    </edge>
    <edge id=":B1_17" function="internal">
        <lane id=":B1_17_0" index="0" speed="3.65" length="2.34" shape="15.00,20.60 15.80,21.00 16.60,22.20"/>
    </edge>
    <edge id=":B1_4" function="internal">
        <lane id=":B1_4_0" index="0" speed="6.51" length="9.03" shape="22.20,16.60 19.75,16.95 18.00,18.00 16.95,19.75 16.60,22.20"/>
    </edge>
    <edge id=":B1_5" function="internal">
        <lane id=":B1_5_0" index="0" speed="13.89" length="14.40" shape="22.20,16.60 7.80,16.60"/>
    </edge>
    <edge id=":B1_6" function="internal">
        <lane id=":B1_6_0" index="0" speed="8.00" length="14.19" shape="22.20,16.60 18.35,16.05 15.60,14.40 13.95,11.65 13.40,7.80"/>
    </edge>
    <edge id=":B1_7" function="internal">
        <lane id=":B1_7_0" index="0" speed="3.65" length="4.67" shape="22.20,16.60 21.00,15.80 20.60,15.00 21.00,14.20 22.20,13.40"/>
    </edge>
    <edge id=":B1_8" function="internal">
        <lane id=":B1_8_0" index="0" speed="6.51" length="9.03" shape="16.60,7.80 16.95,10.25 18.00,12.00 19.75,13.05 22.20,13.40"/>
    </edge>
    <edge id=":B1_9" function="internal">
        <lane id=":B1_9_0" index="0" speed="13.89" length="14.40" shape="16.60,7.80 16.60,22.20"/>
    </edge>
    <edge id=":B1_10" function="internal">
        <lane id=":B1_10_0" index="0" speed="8.00" length="5.93" shape="16.60,7.80 16.05,11.65 15.00,13.40"/>
    </edge>
    <edge id=":B1_11" function="internal">
        <lane id=":B1_11_0" index="0" speed="3.65" length="2.34" shape="16.60,7.80 15.80,9.00 15.00,9.40"/>
    </edge>
    <edge id=":B1_18" function="internal">
        <lane id=":B1_18_0" index="0" speed="8.00" length="8.26" shape="15.00,13.40 14.40,14.40 11.65,16.05 7.80,16.60"/>
    </edge>
    <edge id=":B1_19" function="internal">
        <lane id=":B1_19_0" index="0" speed="3.65" length="2.34" shape="15.00,9.40 14.20,9.00 13.40,7.80"/>
    </edge>
    <edge id=":B1_12" function="internal">
        <lane id=":B1_12_0" index="0" speed="6.51" length="9.03" shape="7.80,13.40 10.25,13.05 12.00,12.00 13.05,10.25 13.40,7.80"/>
    </edge>
    <edge id=":B1_13" function="internal">
        <lane id=":B1_13_0" index="0" speed="13.89" length="14.40" shape="7.80,13.40 22.20,13.40"/>
    </edge>
    <edge id=":B1_14" function="internal">
        <lane id=":B1_14_0" index="0" speed="8.00" length="14.19" shape="7.80,13.40 11.65,13.95 14.40,15.60 16.05,18.35 16.60,22.20"/>
    </edge>
    <edge id=":B1_15" function="internal">
        <lane id=":B1_15_0" index="0" speed="3.65" length="4.67" shape="7.80,13.40 9.00,14.20 9.40,15.00 9.00,15.80 7.80,16.60"/>
    </edge>
    <edge id=":B2_0" function="internal">
        <lane id=":B2_0_0" index="0" speed="6.51" length="9.03" shape="13.40,37.20 13.05,34.75 12.00,33.00 10.25,31.95 7.80,31.60"/>
    </edge>
    <edge id=":B2_1" function="internal">
        <lane id=":B2_1_0" index="0" speed="13.89" length="14.40" shape="13.40,37.20 13.40,22.80"/>
    </edge>
    <edge id=":B2_2" function="internal">
        <lane id=":B2_2_0" index="0" speed="8.00" length="5.93" shape="13.40,37.20 13.95,33.35 15.00,31.60"/>
    </edge>
    <edge id=":B2_3" function="internal">
        <lane id=":B2_3_0" index="0" speed="3.65" length="2.34" shape="13.40,37.20 14.20,36.00 15.00,35.60"/>
    </edge>
    <edge id=":B2_16" function="internal">
        <lane id=":B2_16_0" index="0" speed="8.00" length="8.26" shape="15.00,31.60 15.60,30.60 18.35,28.95 22.20,28.40"/>
    </edge>
    <edge id=":B2_17" function="internal">
        <lane id=":B2_17_0" index="0" speed="3.65" length="2.34" shape="15.00,35.60 15.80,36.00 16.60,37.20"/>
    </edge>
    <edge id=":B2_4" function="internal">
        <lane id=":B2_4_0" index="0" speed="6.51" length="9.03" shape="22.20,31.60 19.75,31.95 18.00,33.00 16.95,34.75 16.60,37.20"/>
    </edge>
    <edge id=":B2_5" function="internal">
        <lane id=":B2_5_0" index="0" speed="13.89" length="14.40" shape="22.20,31.60 7.80,31.60"/>
    </edge>
    <edge id=":B2_6" function="internal">
        <lane id=":B2_6_0" index="0" speed="8.00" length="14.19" shape="22.20,31.60 18.35,31.05 15.60,29.40 13.95,26.65 13.40,22.80"/>
    </edge>
    <edge id=":B2_7" function="internal">
        <lane id=":B2_7_0" index="0" speed="3.65" length="4.67" shape="22.20,31.60 21.00,30.80 20.60,30.00 21.00,29.20 22.20,28.40"/>
    </edge>
    <edge id=":B2_8" function="internal">
        <lane id=":B2_8_0" index="0" speed="6.51" length="9.03" shape="16.60,22.80 16.95,25.25 18.00,27.00 19.75,28.05 22.20,28.40"/>
    </edge>
    <edge id=":B2_9" function="internal">
        <lane id=":B2_9_0" index="0" speed="13.89" length="14.40" shape="16.60,22.80 16.60,37.20"/>
    </edge>
    <edge id=":B2_10" function="internal">
        <lane id=":B2_10_0" index="0" speed="8.00" length="5.93" shape="16.60,22.80 16.05,26.65 15.00,28.40"/>
    </edge>
    <edge id=":B2_11" function="internal">
        <lane id=":B2_11_0" index="0" speed="3.65" length="2.34" shape="16.60,22.80 15.80,24.00 15.00,24.40"/>
    </edge>
    <edge id=":B2_18" function="internal">
        <lane id=":B2_18_0" index="0" speed="8.00" length="8.26" shape="15.00,28.40 14.40,29.40 11.65,31.05 7.80,31.60"/>
    </edge>
    <edge id=":B2_19" function="internal">
        <lane id=":B2_19_0" index="0" speed="3.65" length="2.34" shape="15.00,24.40 14.20,24.00 13.40,22.80"/>
    </edge>
    <edge id=":B2_12" function="internal">
        <lane id=":B2_12_0" index="0" speed="6.51" length="9.03" shape="7.80,28.40 10.25,28.05 12.00,27.00 13.05,25.25 13.40,22.80"/>
    </edge>
    <edge id=":B2_13" function="internal">
        <lane id=":B2_13_0" index="0" speed="13.89" length="14.40" shape="7.80,28.40 22.20,28.40"/>
    </edge>
    <edge id=":B2_14" function="internal">
        <lane id=":B2_14_0" index="0" speed="8.00" length="14.19" shape="7.80,28.40 11.65,28.95 14.40,30.60 16.05,33.35 16.60,37.20"/>
    </edge>
    <edge id=":B2_15" function="internal">
        <lane id=":B2_15_0" index="0" speed="3.65" length="4.67" shape="7.80,28.40 9.00,29.20 9.40,30.00 9.00,30.80 7.80,31.60"/>
    </edge>
    <edge id=":B3_0" function="internal">
        <lane id=":B3_0_0" index="0" speed="6.51" length="9.03" shape="13.40,52.20 13.05,49.75 12.00,48.00 10.25,46.95 7.80,46.60"/>
    </edge>
    <edge id=":B3_1" function="internal">
        <lane id=":B3_1_0" index="0" speed="13.89" length="14.40" shape="13.40,52.20 13.40,37.80"/>
    </edge>
    <edge id=":B3_2" function="internal">
        <lane id=":B3_2_0" index="0" speed="8.00" length="5.93" shape="13.40,52.20 13.95,48.35 15.00,46.60"/>
    </edge>
    <edge id=":B3_3" function="internal">
        <lane id=":B3_3_0" index="0" speed="3.65" length="2.34" shape="13.40,52.20 14.20,51.00 15.00,50.60"/>
    </edge>
    <edge id=":B3_16" function="internal">
        <lane id=":B3_16_0" index="0" speed="8.00" length="8.26" shape="15.00,46.60 15.60,45.60 18.35,43.95 22.20,43.40"/>
    </edge>
    <edge id=":B3_17" function="internal">
        <lane id=":B3_17_0" index="0" speed="3.65" length="2.34" shape="15.00,50.60 15.80,51.00 16.60,52.20"/>
    </edge>
    <edge id=":B3_4" function="internal">
        <lane id=":B3_4_0" index="0" speed="6.51" length="9.03" shape="22.20,46.60 19.75,46.95 18.00,48.00 16.95,49.75 16.60,52.20"/>
    </edge>
    <edge id=":B3_5" function="internal">
        <lane id=":B3_5_0" index="0" speed="13.89" length="14.40" shape="22.20,46.60 7.80,46.60"/>
    </edge>
    <edge id=":B3_6" function="internal">
        <lane id=":B3_6_0" index="0" speed="8.00" length="14.19" shape="22.20,46.60 18.35,46.05 15.60,44.40 13.95,41.65 13.40,37.80"/>
    </edge>
    <edge id=":B3_7" function="internal">
        <lane id=":B3_7_0" index="0" speed="3.65" length="4.67" shape="22.20,46.60 21.00,45.80 20.60,45.00 21.00,44.20 22.20,43.40"/>
    </edge>
    <edge id=":B3_8" function="internal">
        <lane id=":B3_8_0" index="0" speed="6.51" length="9.03" shape="16.60,37.80 16.95,40.25 18.00,42.00 19.75,43.05 22.20,43.40"/>
    </edge>
    <edge id=":B3_9" function="internal">
        <lane id=":B3_9_0" index="0" speed="13.89" length="14.40" shape="16.60,37.80 16.60,52.20"/>
    </edge>
    <edge id=":B3_10" function="internal">
        <lane id=":B3_10_0" index="0" speed="8.00" length="5.93" shape="16.60,37.80 16.05,41.65 15.00,43.40"/>
    </edge>
    <edge id=":B3_11" function="internal">
        <lane id=":B3_11_0" index="0" speed="3.65" length="2.34" shape="16.60,37.80 15.80,39.00 15.00,39.40"/>
    </edge>
    <edge id=":B3_18" function="internal">
        <lane id=":B3_18_0" index="0" speed="8.00" length="8.26" shape="15.00,43.40 14.40,44.40 11.65,46.05 7.80,46.60"/>
    </edge>
    <edge id=":B3_19" function="internal">
        <lane id=":B3_19_0" index="0" speed="3.65" length="2.34" shape="15.00,39.40 14.20,39.00 13.40,37.80"/>
    </edge>
    <edge id=":B3_12" function="internal">
        <lane id=":B3_12_0" index="0" speed="6.51" length="9.03" shape="7.80,43.40 10.25,43.05 12.00,42.00 13.05,40.25 13.40,37.80"/>
    </edge>
    <edge id=":B3_13" function="internal">
        <lane id=":B3_13_0" index="0" speed="13.89" length="14.40" shape="7.80,43.40 22.20,43.40"/>
    </edge>
    <edge id=":B3_14" function="internal">
        <lane id=":B3_14_0" index="0" speed="8.00" length="14.19" shape="7.80,43.40 11.65,43.95 14.40,45.60 16.05,48.35 16.60,52.20"/>
    </edge>
    <edge id=":B3_15" function="internal">
        <lane id=":B3_15_0" index="0" speed="3.65" length="4.67" shape="7.80,43.40 9.00,44.20 9.40,45.00 9.00,45.80 7.80,46.60"/>
    </edge>
    <edge id=":B4_0" function="internal">
        <lane id=":B4_0_0" index="0" speed="13.89" length="14.40" shape="22.20,61.60 7.80,61.60"/>
    </edge>
    <edge id=":B4_1" function="internal">
        <lane id=":B4_1_0" index="0" speed="8.00" length="5.93" shape="22.20,61.60 18.35,61.05 16.60,60.00"/>
    </edge>
    <edge id=":B4_2" function="internal">
        <lane id=":B4_2_0" index="0" speed="3.65" length="2.34" shape="22.20,61.60 21.00,60.80 20.60,60.00"/>
    </edge>
    <edge id=":B4_9" function="internal">
        <lane id=":B4_9_0" index="0" speed="8.00" length="8.26" shape="16.60,60.00 15.60,59.40 13.95,56.65 13.40,52.80"/>
    </edge>
    <edge id=":B4_10" function="internal">
        <lane id=":B4_10_0" index="0" speed="3.65" length="2.34" shape="20.60,60.00 21.00,59.20 22.20,58.40"/>
    </edge>
    <edge id=":B4_3" function="internal">
        <lane id=":B4_3_0" index="0" speed="6.51" length="9.03" shape="16.60,52.80 16.95,55.25 18.00,57.00 19.75,58.05 22.20,58.40"/>
    </edge>
    <edge id=":B4_4" function="internal">
        <lane id=":B4_4_0" index="0" speed="8.00" length="14.19" shape="16.60,52.80 16.05,56.65 14.40,59.40 11.65,61.05 7.80,61.60"/>
    </edge>
    <edge id=":B4_5" function="internal">
        <lane id=":B4_5_0" index="0" speed="3.65" length="4.67" shape="16.60,52.80 15.80,54.00 15.00,54.40 14.20,54.00 13.40,52.80"/>
    </edge>
    <edge id=":B4_6" function="internal">
        <lane id=":B4_6_0" index="0" speed="6.51" length="9.03" shape="7.80,58.40 10.25,58.05 12.00,57.00 13.05,55.25 13.40,52.80"/>
    </edge>
    <edge id=":B4_7" function="internal">
        <lane id=":B4_7_0" index="0" speed="13.89" length="14.40" shape="7.80,58.40 22.20,58.40"/>
    </edge>
    <edge id=":B4_8" function="internal">
        <lane id=":B4_8_0" index="0" speed="3.65" length="2.34" shape="7.80,58.40 9.00,59.20 9.40,60.00"/>
    </edge>
    <edge id=":B4_11" function="internal">
        <lane id=":B4_11_0" index="0" speed="3.65" length="2.34" shape="9.40,60.00 9.00,60.80 7.80,61.60"/>
    </edge>
    <edge id=":C0_0" function="internal">
        <lane id=":C0_0_0" index="0" speed="6.51" length="9.03" shape="28.40,7.20 28.05,4.75 27.00,3.00 25.25,1.95 22.80,1.60"/>
    </edge>
    <edge id=":C0_1" function="internal">
        <lane id=":C0_1_0" index="0" speed="8.00" length="14.19" shape="28.40,7.20 28.95,3.35 30.60,0.60 33.35,-1.05 37.20,-1.60"/>
    </edge>
    <edge id=":C0_2" function="internal">
        <lane id=":C0_2_0" index="0" speed="3.65" length="4.67" shape="28.40,7.20 29.20,6.00 30.00,5.60 30.80,6.00 31.60,7.20"/>
    </edge>
    <edge id=":C0_3" function="internal">
        <lane id=":C0_3_0" index="0" speed="6.51" length="9.03" shape="37.20,1.60 34.75,1.95 33.00,3.00 31.95,4.75 31.60,7.20"/>
    </edge>
    <edge id=":C0_4" function="internal">
        <lane id=":C0_4_0" index="0" speed="13.89" length="14.40" shape="37.20,1.60 22.80,1.60"/>
    </edge>
    <edge id=":C0_5" function="internal">
        <lane id=":C0_5_0" index="0" speed="3.65" length="2.34" shape="37.20,1.60 36.00,0.80 35.60,0.00"/>
    </edge>
    <edge id=":C0_9" function="internal">
        <lane id=":C0_9_0" index="0" speed="3.65" length="2.34" shape="35.60,0.00 36.00,-0.80 37.20,-1.60"/>
    </edge>
    <edge id=":C0_6" function="internal">
        <lane id=":C0_6_0" index="0" speed="13.89" length="14.40" shape="22.80,-1.60 37.20,-1.60"/>
    </edge>
    <edge id=":C0_7" function="internal">
        <lane id=":C0_7_0" index="0" speed="8.00" length="5.93" shape="22.80,-1.60 26.65,-1.05 28.40,0.00"/>
    </edge>
    <edge id=":C0_8" function="internal">
        <lane id=":C0_8_0" index="0" speed="3.65" length="2.34" shape="22.80,-1.60 24.00,-0.80 24.40,0.00"/>
    </edge>
    <edge id=":C0_10" function="internal">
        <lane id=":C0_10_0" index="0" speed="8.00" length="8.26" shape="28.40,0.00 29.40,0.60 31.05,3.35 31.60,7.20"/>
    </edge>
    <edge id=":C0_11" function="internal">
        <lane id=":C0_11_0" index="0" speed="3.65" length="2.34" shape="24.40,0.00 24.00,0.80 22.80,1.60"/>
    </edge>
    <edge id=":C1_0" function="internal">
        <lane id=":C1_0_0" index="0" speed="6.51" length="9.03" shape="28.40,22.20 28.05,19.75 27.00,18.00 25.25,16.95 22.80,16.60"/>
    </edge>
    <edge id=":C1_1" function="internal">
        <lane id=":C1_1_0" index="0" speed="13.89" length="14.40" shape="28.40,22.20 28.40,7.80"/>
    </edge>
    <edge id=":C1_2" function="internal">
        <lane id=":C1_2_0" index="0" speed="8.00" length="5.93" shape="28.40,22.20 28.95,18.35 30.00,16.60"/>
    </edge>
    <edge id=":C1_3" function="internal">
        <lane id=":C1_3_0" index="0" speed="3.65" length="2.34" shape="28.40,22.20 29.20,21.00 30.00,20.60"/>
    </edge>
    <edge id=":C1_16" function="internal">
        <lane id=":C1_16_0" index="0" speed="8.00" length="8.26" shape="30.00,16.60 30.60,15.60 33.35,13.95 37.20,13.40"/>
    </edge>
    <edge id=":C1_17" function="internal">
        <lane id=":C1_17_0" index="0" speed="3.65" length="2.34" shape="30.00,20.60 30.80,21.00 31.60,22.20"/>
    </edge>
    <edge id=":C1_4" function="internal">
        <lane id=":C1_4_0" index="0" speed="6.51" length="9.03" shape="37.20,16.60 34.75,16.95 33.00,18.00 31.95,19.75 31.60,22.20"/>
    </edge>
    <edge id=":C1_5" function="internal">
        <lane id=":C1_5_0" index="0" speed="13.89" length="14.40" shape="37.20,16.60 22.80,16.60"/>
    </edge>
    <edge id=":C1_6" function="internal">
        <lane id=":C1_6_0" index="0" speed="8.00" length="14.19" shape="37.20,16.60 33.35,16.05 30.60,14.40 28.95,11.65 28.40,7.80"/>
    </edge>
    <edge id=":C1_7" function="internal">
        <lane id=":C1_7_0" index="0" speed="3.65" length="4.67" shape="37.20,16.60 36.00,15.80 35.60,15.00 36.00,14.20 37.20,13.40"/>
    </edge>
    <edge id=":C1_8" function="internal">
        <lane id=":C1_8_0" index="0" speed="6.51" length="9.03" shape="31.60,7.80 31.95,10.25 33.00,12.00 34.75,13.05 37.20,13.40"/>
    </edge>
    <edge id=":C1_9" function="internal">
        <lane id=":C1_9_0" index="0" speed="13.89" length="14.40" shape="31.60,7.80 31.60,22.20"/>
    </edge>
    <edge id=":C1_10" function="internal">
        <lane id=":C1_10_0" index="0" speed="8.00" length="5.93" shape="31.60,7.80 31.05,11.65 30.00,13.40"/>
    </edge>
    <edge id=":C1_11" function="internal">
        <lane id=":C1_11_0" index="0" speed="3.65" length="2.34" shape="31.60,7.80 30.80,9.00 30.00,9.40"/>
    </edge>
    <edge id=":C1_18" function="internal">
        <lane id=":C1_18_0" index="0" speed="8.00" length="8.26" shape="30.00,13.40 29.40,14.40 26.65,16.05 22.80,16.60"/>
    </edge>
    <edge id=":C1_19" function="internal">
        <lane id=":C1_19_0" index="0" speed="3.65" length="2.34" shape="30.00,9.40 29.20,9.00 28.40,7.80"/>
    </edge>
    <edge id=":C1_12" function="internal">
        <lane id=":C1_12_0" index="0" speed="6.51" length="9.03" shape="22.80,13.40 25.25,13.05 27.00,12.00 28.05,10.25 28.40,7.80"/>
    </edge>
    <edge id=":C1_13" function="internal">
        <lane id=":C1_13_0" index="0" speed="13.89" length="14.40" shape="22.80,13.40 37.20,13.40"/>
    </edge>
    <edge id=":C1_14" function="internal">
        <lane id=":C1_14_0" index="0" speed="8.00" length="14.19" shape="22.80,13.40 26.65,13.95 29.40,15.60 31.05,18.35 31.60,22.20"/>
    </edge>
    <edge id=":C1_15" function="internal">
        <lane id=":C1_15_0" index="0" speed="3.65" length="4.67" shape="22.80,13.40 24.00,14.20 24.40,15.00 24.00,15.80 22.80,16.60"/>
    </edge>
    <edge id=":C2_0" function="internal">
        <lane id=":C2_0_0" index="0" speed="6.51" length="9.03" shape="28.40,37.20 28.05,34.75 27.00,33.00 25.25,31.95 22.80,31.60"/>
    </edge>
    <edge id=":C2_1" function="internal">
        <lane id=":C2_1_0" index="0" speed="13.89" length="14.40" shape="28.40,37.20 28.40,22.80"/>
    </edge>
    <edge id=":C2_2" function="internal">
        <lane id=":C2_2_0" index="0" speed="8.00" length="5.93" shape="28.40,37.20 28.95,33.35 30.00,31.60"/>
    </edge>
    <edge id=":C2_3" function="internal">
        <lane id=":C2_3_0" index="0" speed="3.65" length="2.34" shape="28.40,37.20 29.20,36.00 30.00,35.60"/>
    </edge>
    <edge id=":C2_16" function="internal">
        <lane id=":C2_16_0" index="0" speed="8.00" length="8.26" shape="30.00,31.60 30.60,30.60 33.35,28.95 37.20,28.40"/>
    </edge>
    <edge id=":C2_17" function="internal">
        <lane id=":C2_17_0" index="0" speed="3.65" length="2.34" shape="30.00,35.60 30.80,36.00 31.60,37.20"/>
    </edge>
    <edge id=":C2_4" function="internal">
        <lane id=":C2_4_0" index="0" speed="6.51" length="9.03" shape="37.20,31.60 34.75,31.95 33.00,33.00 31.95,34.75 31.60,37.20"/>
    </edge>
    <edge id=":C2_5" function="internal">
        <lane id=":C2_5_0" index="0" speed="13.89" length="14.40" shape="37.20,31.60 22.80,31.60"/>
    </edge>
    <edge id=":C2_6" function="internal">
        <lane id=":C2_6_0" index="0" speed="8.00" length="14.19" shape="37.20,31.60 33.35,31.05 30.60,29.40 28.95,26.65 28.40,22.80"/>
    </edge>
    <edge id=":C2_7" function="internal">
        <lane id=":C2_7_0" index="0" speed="3.65" length="4.67" shape="37.20,31.60 36.00,30.80 35.60,30.00 36.00,29.20 37.20,28.40"/>
    </edge>
    <edge id=":C2_8" function="internal">
        <lane id=":C2_8_0" index="0" speed="6.51" length="9.03" shape="31.60,22.80 31.95,25.25 33.00,27.00 34.75,28.05 37.20,28.40"/>
    </edge>
    <edge id=":C2_9" function="internal">
        <lane id=":C2_9_0" index="0" speed="13.89" length="14.40" shape="31.60,22.80 31.60,37.20"/>
    </edge>
    <edge id=":C2_10" function="internal">
        <lane id=":C2_10_0" index="0" speed="8.00" length="5.93" shape="31.60,22.80 31.05,26.65 30.00,28.40"/>
    </edge>
    <edge id=":C2_11" function="internal">
        <lane id=":C2_11_0" index="0" speed="3.65" length="2.34" shape="31.60,22.80 30.80,24.00 30.00,24.40"/>
    </edge>