<?xml version="1.0" encoding="UTF-8"?>

<!-- generated on 2023-02-18 15:33:48.914860 by findAllRoutes.py UNKNOWN
  options: -n net.net.xml -s A0A1 -t E4E3 -o tripsGrid.trips.xml
-->

<routes xmlns:xsi="http://www.w3.org/2001/XMLSchema-instance" xsi:noNamespaceSchemaLocation="http://sumo.dlr.de/xsd/routes_file.xsd">
    <route id="0" edges="A0A1 A1A2 A2A3 A3A4 A4B4 B4C4 C4D4 D4E4 E4E3"/>
    <route id="1" edges="A0A1 A1A2 A2A3 A3B3 B3B4 B4C4 C4D4 D4E4 E4E3"/>
    <route id="2" edges="A0A1 A1A2 A2A3 A3B3 B3C3 C3C4 C4D4 D4E4 E4E3"/>
    <route id="3" edges="A0A1 A1A2 A2A3 A3B3 B3C3 C3D3 D3D4 D4E4 E4E3"/>
    <route id="4" edges="A0A1 A1A2 A2B2 B2B3 B3B4 B4C4 C4D4 D4E4 E4E3"/>
    <route id="5" edges="A0A1 A1A2 A2B2 B2B3 B3C3 C3C4 C4D4 D4E4 E4E3"/>
    <route id="6" edges="A0A1 A1A2 A2B2 B2B3 B3C3 C3D3 D3D4 D4E4 E4E3"/>
    <route id="7" edges="A0A1 A1A2 A2B2 B2C2 C2C3 C3C4 C4D4 D4E4 E4E3"/>
    <route id="8" edges="A0A1 A1A2 A2B2 B2C2 C2C3 C3D3 D3D4 D4E4 E4E3"/>
    <route id="9" edges="A0A1 A1A2 A2B2 B2C2 C2D2 D2D3 D3D4 D4E4 E4E3"/>
    <route id="10" edges="A0A1 A1B1 B1B2 B2B3 B3B4 B4C4 C4D4 D4E4 E4E3"/>
    <route id="11" edges="A0A1 A1B1 B1B2 B2B3 B3C3 C3C4 C4D4 D4E4 E4E3"/>
    <route id="12" edges="A0A1 A1B1 B1B2 B2B3 B3C3 C3D3 D3D4 D4E4 E4E3"/>
    <route id="13" edges="A0A1 A1B1 B1B2 B2C2 C2C3 C3C4 C4D4 D4E4 E4E3"/>
    <route id="14" edges="A0A1 A1B1 B1B2 B2C2 C2C3 C3D3 D3D4 D4E4 E4E3"/>
    <route id="15" edges="A0A1 A1B1 B1B2 B2C2 C2D2 D2D3 D3D4 D4E4 E4E3"/>
    <route id="16" edges="A0A1 A1B1 B1C1 C1C2 C2C3 C3C4 C4D4 D4E4 E4E3"/>
    <route id="17" edges="A0A1 A1B1 B1C1 C1C2 C2C3 C3D3 D3D4 D4E4 E4E3"/>
    <route id="18" edges="A0A1 A1B1 B1C1 C1C2 C2D2 D2D3 D3D4 D4E4 E4E3"/>
    <route id="19" edges="A0A1 A1B1 B1C1 C1D1 D1D2 D2D3 D3D4 D4E4 E4E3"/>
    <route id="20" edges="A0A1 A1A0 A0B0 B0B1 B1B2 B2B3 B3B4 B4C4 C4D4 D4E4 E4E3"/>
    <route id="21" edges="A0A1 A1A0 A0B0 B0B1 B1B2 B2B3 B3C3 C3C4 C4D4 D4E4 E4E3"/>
    <route id="22" edges="A0A1 A1A0 A0B0 B0B1 B1B2 B2B3 B3C3 C3D3 D3D4 D4E4 E4E3"/>
    <route id="23" edges="A0A1 A1A0 A0B0 B0B1 B1B2 B2C2 C2C3 C3C4 C4D4 D4E4 E4E3"/>
    <route id="24" edges="A0A1 A1A0 A0B0 B0B1 B1B2 B2C2 C2C3 C3D3 D3D4 D4E4 E4E3"/>
    <route id="25" edges="A0A1 A1A0 A0B0 B0B1 B1B2 B2C2 C2D2 D2D3 D3D4 D4E4 E4E3"/>
    <route id="26" edges="A0A1 A1A0 A0B0 B0B1 B1C1 C1C2 C2C3 C3C4 C4D4 D4E4 E4E3"/>
    <route id="27" edges="A0A1 A1A0 A0B0 B0B1 B1C1 C1C2 C2C3 C3D3 D3D4 D4E4 E4E3"/>
    <route id="28" edges="A0A1 A1A0 A0B0 B0B1 B1C1 C1C2 C2D2 D2D3 D3D4 D4E4 E4E3"/>
    <route id="29" edges="A0A1 A1A0 A0B0 B0B1 B1C1 C1D1 D1D2 D2D3 D3D4 D4E4 E4E3"/>
    <route id="30" edges="A0A1 A1A0 A0B0 B0C0 C0C1 C1C2 C2C3 C3C4 C4D4 D4E4 E4E3"/>
    <route id="31" edges="A0A1 A1A0 A0B0 B0C0 C0C1 C1C2 C2C3 C3D3 D3D4 D4E4 E4E3"/>
    <route id="32" edges="A0A1 A1A0 A0B0 B0C0 C0C1 C1C2 C2D2 D2D3 D3D4 D4E4 E4E3"/>
    <route id="33" edges="A0A1 A1A0 A0B0 B0C0 C0C1 C1D1 D1D2 D2D3 D3D4 D4E4 E4E3"/>
    <route id="34" edges="A0A1 A1A0 A0B0 B0C0 C0D0 D0D1 D1D2 D2D3 D3D4 D4E4 E4E3"/>
    <route id="35" edges="A0A1 A1A2 A2A1 A1B1 B1B2 B2B3 B3B4 B4C4 C4D4 D4E4 E4E3"/>
    <route id="36" edges="A0A1 A1A2 A2A1 A1B1 B1B2 B2B3 B3C3 C3C4 C4D4 D4E4 E4E3"/>
    <route id="37" edges="A0A1 A1A2 A2A1 A1B1 B1B2 B2B3 B3C3 C3D3 D3D4 D4E4 E4E3"/>
    <route id="38" edges="A0A1 A1A2 A2A1 A1B1 B1B2 B2C2 C2C3 C3C4 C4D4 D4E4 E4E3"/>
    <route id="39" edges="A0A1 A1A2 A2A1 A1B1 B1B2 B2C2 C2C3 C3D3 D3D4 D4E4 E4E3"/>
    <route id="40" edges="A0A1 A1A2 A2A1 A1B1 B1B2 B2C2 C2D2 D2D3 D3D4 D4E4 E4E3"/>
    <route id="41" edges="A0A1 A1A2 A2A1 A1B1 B1C1 C1C2 C2C3 C3C4 C4D4 D4E4 E4E3"/>
    <route id="42" edges="A0A1 A1A2 A2A1 A1B1 B1C1 C1C2 C2C3 C3D3 D3D4 D4E4 E4E3"/>
    <route id="43" edges="A0A1 A1A2 A2A1 A1B1 B1C1 C1C2 C2D2 D2D3 D3D4 D4E4 E4E3"/>
    <route id="44" edges="A0A1 A1A2 A2A1 A1B1 B1C1 C1D1 D1D2 D2D3 D3D4 D4E4 E4E3"/>
    <route id="45" edges="A0A1 A1A2 A2A3 A3A2 A2B2 B2B3 B3B4 B4C4 C4D4 D4E4 E4E3"/>
    <route id="46" edges="A0A1 A1A2 A2A3 A3A2 A2B2 B2B3 B3C3 C3C4 C4D4 D4E4 E4E3"/>
    <route id="47" edges="A0A1 A1A2 A2A3 A3A2 A2B2 B2B3 B3C3 C3D3 D3D4 D4E4 E4E3"/>
    <route id="48" edges="A0A1 A1A2 A2A3 A3A2 A2B2 B2C2 C2C3 C3C4 C4D4 D4E4 E4E3"/>
    <route id="49" edges="A0A1 A1A2 A2A3 A3A2 A2B2 B2C2 C2C3 C3D3 D3D4 D4E4 E4E3"/>
    <route id="50" edges="A0A1 A1A2 A2A3 A3A2 A2B2 B2C2 C2D2 D2D3 D3D4 D4E4 E4E3"/>
    <route id="51" edges="A0A1 A1A2 A2A3 A3A4 A4B4 B4B3 B3B4 B4C4 C4D4 D4E4 E4E3"/>
    <route id="52" edges="A0A1 A1A2 A2A3 A3A4 A4B4 B4B3 B3C3 C3C4 C4D4 D4E4 E4E3"/>
    <route id="53" edges="A0A1 A1A2 A2A3 A3A4 A4B4 B4B3 B3C3 C3D3 D3D4 D4E4 E4E3"/>
    <route id="54" edges="A0A1 A1A2 A2A3 A3A4 A4B4 B4C4 C4C3 C3C4 C4D4 D4E4 E4E3"/>
    <route id="55" edges="A0A1 A1A2 A2A3 A3A4 A4B4 B4C4 C4C3 C3D3 D3D4 D4E4 E4E3"/>
    <route id="56" edges="A0A1 A1A2 A2A3 A3A4 A4B4 B4C4 C4D4 D4D3 D3D4 D4E4 E4E3"/>
    <route id="57" edges="A0A1 A1A2 A2A3 A3B3 B3A3 A3A4 A4B4 B4C4 C4D4 D4E4 E4E3"/>
    <route id="58" edges="A0A1 A1A2 A2A3 A3B3 B3B2 B2B3 B3B4 B4C4 C4D4 D4E4 E4E3"/>
    <route id="59" edges="A0A1 A1A2 A2A3 A3B3 B3B2 B2B3 B3C3 C3C4 C4D4 D4E4 E4E3"/>
    <route id="60" edges="A0A1 A1A2 A2A3 A3B3 B3B2 B2B3 B3C3 C3D3 D3D4 D4E4 E4E3"/>
    <route id="61" edges="A0A1 A1A2 A2A3 A3B3 B3B2 B2C2 C2C3 C3C4 C4D4 D4E4 E4E3"/>
    <route id="62" edges="A0A1 A1A2 A2A3 A3B3 B3B2 B2C2 C2C3 C3D3 D3D4 D4E4 E4E3"/>
    <route id="63" edges="A0A1 A1A2 A2A3 A3B3 B3B2 B2C2 C2D2 D2D3 D3D4 D4E4 E4E3"/>
    <route id="64" edges="A0A1 A1A2 A2A3 A3B3 B3B4 B4B3 B3C3 C3C4 C4D4 D4E4 E4E3"/>
    <route id="65" edges="A0A1 A1A2 A2A3 A3B3 B3B4 B4B3 B3C3 C3D3 D3D4 D4E4 E4E3"/>
    <route id="66" edges="A0A1 A1A2 A2A3 A3B3 B3B4 B4C4 C4C3 C3C4 C4D4 D4E4 E4E3"/>
    <route id="67" edges="A0A1 A1A2 A2A3 A3B3 B3B4 B4C4 C4C3 C3D3 D3D4 D4E4 E4E3"/>
    <route id="68" edges="A0A1 A1A2 A2A3 A3B3 B3B4 B4C4 C4D4 D4D3 D3D4 D4E4 E4E3"/>
    <route id="69" edges="A0A1 A1A2 A2A3 A3B3 B3C3 C3B3 B3B4 B4C4 C4D4 D4E4 E4E3"/>
    <route id="70" edges="A0A1 A1A2 A2A3 A3B3 B3C3 C3C2 C2C3 C3C4 C4D4 D4E4 E4E3"/>
    <route id="71" edges="A0A1 A1A2 A2A3 A3B3 B3C3 C3C2 C2C3 C3D3 D3D4 D4E4 E4E3"/>
    <route id="72" edges="A0A1 A1A2 A2A3 A3B3 B3C3 C3C2 C2D2 D2D3 D3D4 D4E4 E4E3"/>
    <route id="73" edges="A0A1 A1A2 A2A3 A3B3 B3C3 C3C4 C4B4 B4C4 C4D4 D4E4 E4E3"/>
    <route id="74" edges="A0A1 A1A2 A2A3 A3B3 B3C3 C3C4 C4C3 C3D3 D3D4 D4E4 E4E3"/>
    <route id="75" edges="A0A1 A1A2 A2A3 A3B3 B3C3 C3C4 C4D4 D4D3 D3D4 D4E4 E4E3"/>
    <route id="76" edges="A0A1 A1A2 A2A3 A3B3 B3C3 C3D3 D3C3 C3C4 C4D4 D4E4 E4E3"/>
    <route id="77" edges="A0A1 A1A2 A2A3 A3B3 B3C3 C3D3 D3D2 D2D3 D3D4 D4E4 E4E3"/>
    <route id="78" edges="A0A1 A1A2 A2A3 A3B3 B3C3 C3D3 D3D4 D4C4 C4D4 D4E4 E4E3"/>
    <route id="79" edges="A0A1 A1A2 A2A3 A3B3 B3C3 C3D3 D3E3 E3D3 D3D4 D4E4 E4E3"/>
    <route id="80" edges="A0A1 A1A2 A2A3 A3B3 B3C3 C3D3 D3E3 E3E4 E4D4 D4E4 E4E3"/>
    <route id="81" edges="A0A1 A1A2 A2B2 B2A2 A2A3 A3A4 A4B4 B4C4 C4D4 D4E4 E4E3"/>
    <route id="82" edges="A0A1 A1A2 A2B2 B2A2 A2A3 A3B3 B3B4 B4C4 C4D4 D4E4 E4E3"/>
    <route id="83" edges="A0A1 A1A2 A2B2 B2A2 A2A3 A3B3 B3C3 C3C4 C4D4 D4E4 E4E3"/>
    <route id="84" edges="A0A1 A1A2 A2B2 B2A2 A2A3 A3B3 B3C3 C3D3 D3D4 D4E4 E4E3"/>
    <route id="85" edges="A0A1 A1A2 A2B2 B2B1 B1B2 B2B3 B3B4 B4C4 C4D4 D4E4 E4E3"/>
    <route id="86" edges="A0A1 A1A2 A2B2 B2B1 B1B2 B2B3 B3C3 C3C4 C4D4 D4E4 E4E3"/>
    <route id="87" edges="A0A1 A1A2 A2B2 B2B1 B1B2 B2B3 B3C3 C3D3 D3D4 D4E4 E4E3"/>
    <route id="88" edges="A0A1 A1A2 A2B2 B2B1 B1B2 B2C2 C2C3 C3C4 C4D4 D4E4 E4E3"/>
    <route id="89" edges="A0A1 A1A2 A2B2 B2B1 B1B2 B2C2 C2C3 C3D3 D3D4 D4E4 E4E3"/>
    <route id="90" edges="A0A1 A1A2 A2B2 B2B1 B1B2 B2C2 C2D2 D2D3 D3D4 D4E4 E4E3"/>
    <route id="91" edges="A0A1 A1A2 A2B2 B2B1 B1C1 C1C2 C2C3 C3C4 C4D4 D4E4 E4E3"/>
    <route id="92" edges="A0A1 A1A2 A2B2 B2B1 B1C1 C1C2 C2C3 C3D3 D3D4 D4E4 E4E3"/>
    <route id="93" edges="A0A1 A1A2 A2B2 B2B1 B1C1 C1C2 C2D2 D2D3 D3D4 D4E4 E4E3"/>
    <route id="94" edges="A0A1 A1A2 A2B2 B2B1 B1C1 C1D1 D1D2 D2D3 D3D4 D4E4 E4E3"/>
    <route id="95" edges="A0A1 A1A2 A2B2 B2B3 B3A3 A3A4 A4B4 B4C4 C4D4 D4E4 E4E3"/>
    <route id="96" edges="A0A1 A1A2 A2B2 B2B3 B3A3 A3B3 B3B4 B4C4 C4D4 D4E4 E4E3"/>
    <route id="97" edges="A0A1 A1A2 A2B2 B2B3 B3A3 A3B3 B3C3 C3C4 C4D4 D4E4 E4E3"/>
    <route id="98" edges="A0A1 A1A2 A2B2 B2B3 B3A3 A3B3 B3C3 C3D3 D3D4 D4E4 E4E3"/>
    <route id="99" edges="A0A1 A1A2 A2B2 B2B3 B3B2 B2C2 C2C3 C3C4 C4D4 D4E4 E4E3"/>
    <route id="100" edges="A0A1 A1A2 A2B2 B2B3 B3B2 B2C2 C2C3 C3D3 D3D4 D4E4 E4E3"/>
    <route id="101" edges="A0A1 A1A2 A2B2 B2B3 B3B2 B2C2 C2D2 D2D3 D3D4 D4E4 E4E3"/>
    <route id="102" edges="A0A1 A1A2 A2B2 B2B3 B3B4 B4B3 B3C3 C3C4 C4D4 D4E4 E4E3"/>
    <route id="103" edges="A0A1 A1A2 A2B2 B2B3 B3B4 B4B3 B3C3 C3D3 D3D4 D4E4 E4E3"/>
    <route id="104" edges="A0A1 A1A2 A2B2 B2B3 B3B4 B4C4 C4C3 C3C4 C4D4 D4E4 E4E3"/>
    <route id="105" edges="A0A1 A1A2 A2B2 B2B3 B3B4 B4C4 C4C3 C3D3 D3D4 D4E4 E4E3"/>
    <route id="106" edges="A0A1 A1A2 A2B2 B2B3 B3B4 B4C4 C4D4 D4D3 D3D4 D4E4 E4E3"/>
    <route id="107" edges="A0A1 A1A2 A2B2 B2B3 B3C3 C3B3 B3B4 B4C4 C4D4 D4E4 E4E3"/>
    <route id="108" edges="A0A1 A1A2 A2B2 B2B3 B3C3 C3C2 C2C3 C3C4 C4D4 D4E4 E4E3"/>
    <route id="109" edges="A0A1 A1A2 A2B2 B2B3 B3C3 C3C2 C2C3 C3D3 D3D4 D4E4 E4E3"/>
    <route id="110" edges="A0A1 A1A2 A2B2 B2B3 B3C3 C3C2 C2D2 D2D3 D3D4 D4E4 E4E3"/>
    <route id="111" edges="A0A1 A1A2 A2B2 B2B3 B3C3 C3C4 C4B4 B4C4 C4D4 D4E4 E4E3"/>
    <route id="112" edges="A0A1 A1A2 A2B2 B2B3 B3C3 C3C4 C4C3 C3D3 D3D4 D4E4 E4E3"/>
    <route id="113" edges="A0A1 A1A2 A2B2 B2B3 B3C3 C3C4 C4D4 D4D3 D3D4 D4E4 E4E3"/>
    <route id="114" edges="A0A1 A1A2 A2B2 B2B3 B3C3 C3D3 D3C3 C3C4 C4D4 D4E4 E4E3"/>
    <route id="115" edges="A0A1 A1A2 A2B2 B2B3 B3C3 C3D3 D3D2 D2D3 D3D4 D4E4 E4E3"/>
    <route id="116" edges="A0A1 A1A2 A2B2 B2B3 B3C3 C3D3 D3D4 D4C4 C4D4 D4E4 E4E3"/>
    <route id="117" edges="A0A1 A1A2 A2B2 B2B3 B3C3 C3D3 D3E3 E3D3 D3D4 D4E4 E4E3"/>
    <route id="118" edges="A0A1 A1A2 A2B2 B2B3 B3C3 C3D3 D3E3 E3E4 E4D4 D4E4 E4E3"/>
    <route id="119" edges="A0A1 A1A2 A2B2 B2C2 C2B2 B2B3 B3B4 B4C4 C4D4 D4E4 E4E3"/>
    <route id="120" edges="A0A1 A1A2 A2B2 B2C2 C2B2 B2B3 B3C3 C3C4 C4D4 D4E4 E4E3"/>
    <route id="121" edges="A0A1 A1A2 A2B2 B2C2 C2B2 B2B3 B3C3 C3D3 D3D4 D4E4 E4E3"/>
    <route id="122" edges="A0A1 A1A2 A2B2 B2C2 C2C1 C1C2 C2C3 C3C4 C4D4 D4E4 E4E3"/>
    <route id="123" edges="A0A1 A1A2 A2B2 B2C2 C2C1 C1C2 C2C3 C3D3 D3D4 D4E4 E4E3"/>
    <route id="124" edges="A0A1 A1A2 A2B2 B2C2 C2C1 C1C2 C2D2 D2D3 D3D4 D4E4 E4E3"/>
    <route id="125" edges="A0A1 A1A2 A2B2 B2C2 C2C1 C1D1 D1D2 D2D3 D3D4 D4E4 E4E3"/>
    <route id="126" edges="A0A1 A1A2 A2B2 B2C2 C2C3 C3B3 B3B4 B4C4 C4D4 D4E4 E4E3"/>
    <route id="127" edges="A0A1 A1A2 A2B2 B2C2 C2C3 C3B3 B3C3 C3C4 C4D4 D4E4 E4E3"/>
    <route id="128" edges="A0A1 A1A2 A2B2 B2C2 C2C3 C3B3 B3C3 C3D3 D3D4 D4E4 E4E3"/>
    <route id="129" edges="A0A1 A1A2 A2B2 B2C2 C2C3 C3C2 C2D2 D2D3 D3D4 D4E4 E4E3"/>
    <route id="130" edges="A0A1 A1A2 A2B2 B2C2 C2C3 C3C4 C4B4 B4C4 C4D4 D4E4 E4E3"/>
    <route id="131" edges="A0A1 A1A2 A2B2 B2C2 C2C3 C3C4 C4C3 C3D3 D3D4 D4E4 E4E3"/>
    <route id="132" edges="A0A1 A1A2 A2B2 B2C2 C2C3 C3C4 C4D4 D4D3 D3D4 D4E4 E4E3"/>
    <route id="133" edges="A0A1 A1A2 A2B2 B2C2 C2C3 C3D3 D3C3 C3C4 C4D4 D4E4 E4E3"/>
    <route id="134" edges="A0A1 A1A2 A2B2 B2C2 C2C3 C3D3 D3D2 D2D3 D3D4 D4E4 E4E3"/>
    <route id="135" edges="A0A1 A1A2 A2B2 B2C2 C2C3 C3D3 D3D4 D4C4 C4D4 D4E4 E4E3"/>
    <route id="136" edges="A0A1 A1A2 A2B2 B2C2 C2C3 C3D3 D3E3 E3D3 D3D4 D4E4 E4E3"/>
    <route id="137" edges="A0A1 A1A2 A2B2 B2C2 C2C3 C3D3 D3E3 E3E4 E4D4 D4E4 E4E3"/>
    <route id="138" edges="A0A1 A1A2 A2B2 B2C2 C2D2 D2C2 C2C3 C3C4 C4D4 D4E4 E4E3"/>
    <route id="139" edges="A0A1 A1A2 A2B2 B2C2 C2D2 D2C2 C2C3 C3D3 D3D4 D4E4 E4E3"/>
    <route id="140" edges="A0A1 A1A2 A2B2 B2C2 C2D2 D2D1 D1D2 D2D3 D3D4 D4E4 E4E3"/>
    <route id="141" edges="A0A1 A1A2 A2B2 B2C2 C2D2 D2D3 D3C3 C3C4 C4D4 D4E4 E4E3"/>
    <route id="142" edges="A0A1 A1A2 A2B2 B2C2 C2D2 D2D3 D3C3 C3D3 D3D4 D4E4 E4E3"/>
    <route id="143" edges="A0A1 A1A2 A2B2 B2C2 C2D2 D2D3 D3D4 D4C4 C4D4 D4E4 E4E3"/>
    <route id="144" edges="A0A1 A1A2 A2B2 B2C2 C2D2 D2D3 D3E3 E3D3 D3D4 D4E4 E4E3"/>
    <route id="145" edges="A0A1 A1A2 A2B2 B2C2 C2D2 D2D3 D3E3 E3E4 E4D4 D4E4 E4E3"/>
    <route id="146" edges="A0A1 A1A2 A2B2 B2C2 C2D2 D2E2 E2D2 D2D3 D3D4 D4E4 E4E3"/>
    <route id="147" edges="A0A1 A1A2 A2B2 B2C2 C2D2 D2E2 E2E3 E3D3 D3D4 D4E4 E4E3"/>
    <route id="148" edges="A0A1 A1A2 A2B2 B2C2 C2D2 D2E2 E2E3 E3E4 E4D4 D4E4 E4E3"/>
    <route id="149" edges="A0A1 A1B1 B1A1 A1A2 A2A3 A3A4 A4B4 B4C4 C4D4 D4E4 E4E3"/>
    <route id="150" edges="A0A1 A1B1 B1A1 A1A2 A2A3 A3B3 B3B4 B4C4 C4D4 D4E4 E4E3"/>
    <route id="151" edges="A0A1 A1B1 B1A1 A1A2 A2A3 A3B3 B3C3 C3C4 C4D4 D4E4 E4E3"/>
    <route id="152" edges="A0A1 A1B1 B1A1 A1A2 A2A3 A3B3 B3C3 C3D3 D3D4 D4E4 E4E3"/>
    <route id="153" edges="A0A1 A1B1 B1A1 A1A2 A2B2 B2B3 B3B4 B4C4 C4D4 D4E4 E4E3"/>
    <route id="154" edges="A0A1 A1B1 B1A1 A1A2 A2B2 B2B3 B3C3 C3C4 C4D4 D4E4 E4E3"/>
    <route id="155" edges="A0A1 A1B1 B1A1 A1A2 A2B2 B2B3 B3C3 C3D3 D3D4 D4E4 E4E3"/>
    <route id="156" edges="A0A1 A1B1 B1A1 A1A2 A2B2 B2C2 C2C3 C3C4 C4D4 D4E4 E4E3"/>
    <route id="157" edges="A0A1 A1B1 B1A1 A1A2 A2B2 B2C2 C2C3 C3D3 D3D4 D4E4 E4E3"/>
    <route id="158" edges="A0A1 A1B1 B1A1 A1A2 A2B2 B2C2 C2D2 D2D3 D3D4 D4E4 E4E3"/>
    <route id="159" edges="A0A1 A1B1 B1B0 B0B1 B1B2 B2B3 B3B4 B4C4 C4D4 D4E4 E4E3"/>
    <route id="160" edges="A0A1 A1B1 B1B0 B0B1 B1B2 B2B3 B3C3 C3C4 C4D4 D4E4 E4E3"/>
    <route id="161" edges="A0A1 A1B1 B1B0 B0B1 B1B2 B2B3 B3C3 C3D3 D3D4 D4E4 E4E3"/>
    <route id="162" edges="A0A1 A1B1 B1B0 B0B1 B1B2 B2C2 C2C3 C3C4 C4D4 D4E4 E4E3"/>
    <route id="163" edges="A0A1 A1B1 B1B0 B0B1 B1B2 B2C2 C2C3 C3D3 D3D4 D4E4 E4E3"/>
    <route id="164" edges="A0A1 A1B1 B1B0 B0B1 B1B2 B2C2 C2D2 D2D3 D3D4 D4E4 E4E3"/>
    <route id="165" edges="A0A1 A1B1 B1B0 B0B1 B1C1 C1C2 C2C3 C3C4 C4D4 D4E4 E4E3"/>
    <route id="166" edges="A0A1 A1B1 B1B0 B0B1 B1C1 C1C2 C2C3 C3D3 D3D4 D4E4 E4E3"/>
    <route id="167" edges="A0A1 A1B1 B1B0 B0B1 B1C1 C1C2 C2D2 D2D3 D3D4 D4E4 E4E3"/>
    <route id="168" edges="A0A1 A1B1 B1B0 B0B1 B1C1 C1D1 D1D2 D2D3 D3D4 D4E4 E4E3"/>
    <route id="169" edges="A0A1 A1B1 B1B0 B0C0 C0C1 C1C2 C2C3 C3C4 C4D4 D4E4 E4E3"/>
    <route id="170" edges="A0A1 A1B1 B1B0 B0C0 C0C1 C1C2 C2C3 C3D3 D3D4 D4E4 E4E3"/>
    <route id="171" edges="A0A1 A1B1 B1B0 B0C0 C0C1 C1C2 C2D2 D2D3 D3D4 D4E4 E4E3"/>
    <route id="172" edges="A0A1 A1B1 B1B0 B0C0 C0C1 C1D1 D1D2 D2D3 D3D4 D4E4 E4E3"/>
    <route id="173" edges="A0A1 A1B1 B1B0 B0C0 C0D0 D0D1 D1D2 D2D3 D3D4 D4E4 E4E3"/>
    <route id="174" edges="A0A1 A1B1 B1B2 B2A2 A2A3 A3A4 A4B4 B4C4 C4D4 D4E4 E4E3"/>
    <route id="175" edges="A0A1 A1B1 B1B2 B2A2 A2A3 A3B3 B3B4 B4C4 C4D4 D4E4 E4E3"/>
    <route id="176" edges="A0A1 A1B1 B1B2 B2A2 A2A3 A3B3 B3C3 C3C4 C4D4 D4E4 E4E3"/>
    <route id="177" edges="A0A1 A1B1 B1B2 B2A2 A2A3 A3B3 B3C3 C3D3 D3D4 D4E4 E4E3"/>
    <route id="178" edges="A0A1 A1B1 B1B2 B2A2 A2B2 B2B3 B3B4 B4C4 C4D4 D4E4 E4E3"/>
    <route id="179" edges="A0A1 A1B1 B1B2 B2A2 A2B2 B2B3 B3C3 C3C4 C4D4 D4E4 E4E3"/>
    <route id="180" edges="A0A1 A1B1 B1B2 B2A2 A2B2 B2B3 B3C3 C3D3 D3D4 D4E4 E4E3"/>
    <route id="181" edges="A0A1 A1B1 B1B2 B2A2 A2B2 B2C2 C2C3 C3C4 C4D4 D4E4 E4E3"/>
    <route id="182" edges="A0A1 A1B1 B1B2 B2A2 A2B2 B2C2 C2C3 C3D3 D3D4 D4E4 E4E3"/>
    <route id="183" edges="A0A1 A1B1 B1B2 B2A2 A2B2 B2C2 C2D2 D2D3 D3D4 D4E4 E4E3"/>
    <route id="184" edges="A0A1 A1B1 B1B2 B2B1 B1C1 C1C2 C2C3 C3C4 C4D4 D4E4 E4E3"/>
    <route id="185" edges="A0A1 A1B1 B1B2 B2B1 B1C1 C1C2 C2C3 C3D3 D3D4 D4E4 E4E3"/>
    <route id="186" edges="A0A1 A1B1 B1B2 B2B1 B1C1 C1C2 C2D2 D2D3 D3D4 D4E4 E4E3"/>
    <route id="187" edges="A0A1 A1B1 B1B2 B2B1 B1C1 C1D1 D1D2 D2D3 D3D4 D4E4 E4E3"/>
    <route id="188" edges="A0A1 A1B1 B1B2 B2B3 B3A3 A3A4 A4B4 B4C4 C4D4 D4E4 E4E3"/>
    <route id="189" edges="A0A1 A1B1 B1B2 B2B3 B3A3 A3B3 B3B4 B4C4 C4D4 D4E4 E4E3"/>
    <route id="190" edges="A0A1 A1B1 B1B2 B2B3 B3A3 A3B3 B3C3 C3C4 C4D4 D4E4 E4E3"/>
    <route id="191" edges="A0A1 A1B1 B1B2 B2B3 B3A3 A3B3 B3C3 C3D3 D3D4 D4E4 E4E3"/>
    <route id="192" edges="A0A1 A1B1 B1B2 B2B3 B3B2 B2C2 C2C3 C3C4 C4D4 D4E4 E4E3"/>
    <route id="193" edges="A0A1 A1B1 B1B2 B2B3 B3B2 B2C2 C2C3 C3D3 D3D4 D4E4 E4E3"/>
    <route id="194" edges="A0A1 A1B1 B1B2 B2B3 B3B2 B2C2 C2D2 D2D3 D3D4 D4E4 E4E3"/>
    <route id="195" edges="A0A1 A1B1 B1B2 B2B3 B3B4 B4B3 B3C3 C3C4 C4D4 D4E4 E4E3"/>
    <route id="196" edges="A0A1 A1B1 B1B2 B2B3 B3B4 B4B3 B3C3 C3D3 D3D4 D4E4 E4E3"/>
    <route id="197" edges="A0A1 A1B1 B1B2 B2B3 B3B4 B4C4 C4C3 C3C4 C4D4 D4E4 E4E3"/>
    <route id="198" edges="A0A1 A1B1 B1B2 B2B3 B3B4 B4C4 C4C3 C3D3 D3D4 D4E4 E4E3"/>
    <route id="199" edges="A0A1 A1B1 B1B2 B2B3 B3B4 B4C4 C4D4 D4D3 D3D4 D4E4 E4E3"/>
    <route id="200" edges="A0A1 A1B1 B1B2 B2B3 B3C3 C3B3 B3B4 B4C4 C4D4 D4E4 E4E3"/>
    <route id="201" edges="A0A1 A1B1 B1B2 B2B3 B3C3 C3C2 C2C3 C3C4 C4D4 D4E4 E4E3"/>
    <route id="202" edges="A0A1 A1B1 B1B2 B2B3 B3C3 C3C2 C2C3 C3D3 D3D4 D4E4 E4E3"/>
    <route id="203" edges="A0A1 A1B1 B1B2 B2B3 B3C3 C3C2 C2D2 D2D3 D3D4 D4E4 E4E3"/>
    <route id="204" edges="A0A1 A1B1 B1B2 B2B3 B3C3 C3C4 C4B4 B4C4 C4D4 D4E4 E4E3"/>
    <route id="205" edges="A0A1 A1B1 B1B2 B2B3 B3C3 C3C4 C4C3 C3D3 D3D4 D4E4 E4E3"/>
    <route id="206" edges="A0A1 A1B1 B1B2 B2B3 B3C3 C3C4 C4D4 D4D3 D3D4 D4E4 E4E3"/>
    <route id="207" edges="A0A1 A1B1 B1B2 B2B3 B3C3 C3D3 D3C3 C3C4 C4D4 D4E4 E4E3"/>
    <route id="208" edges="A0A1 A1B1 B1B2 B2B3 B3C3 C3D3 D3D2 D2D3 D3D4 D4E4 E4E3"/>
    <route id="209" edges="A0A1 A1B1 B1B2 B2B3 B3C3 C3D3 D3D4 D4C4 C4D4 D4E4 E4E3"/>
    <route id="210" edges="A0A1 A1B1 B1B2 B2B3 B3C3 C3D3 D3E3 E3D3 D3D4 D4E4 E4E3"/>
    <route id="211" edges="A0A1 A1B1 B1B2 B2B3 B3C3 C3D3 D3E3 E3E4 E4D4 D4E4 E4E3"/>
    <route id="212" edges="A0A1 A1B1 B1B2 B2C2 C2B2 B2B3 B3B4 B4C4 C4D4 D4E4 E4E3"/>
    <route id="213" edges="A0A1 A1B1 B1B2 B2C2 C2B2 B2B3 B3C3 C3C4 C4D4 D4E4 E4E3"/>
    <route id="214" edges="A0A1 A1B1 B1B2 B2C2 C2B2 B2B3 B3C3 C3D3 D3D4 D4E4 E4E3"/>
    <route id="215" edges="A0A1 A1B1 B1B2 B2C2 C2C1 C1C2 C2C3 C3C4 C4D4 D4E4 E4E3"/>
    <route id="216" edges="A0A1 A1B1 B1B2 B2C2 C2C1 C1C2 C2C3 C3D3 D3D4 D4E4 E4E3"/>
    <route id="217" edges="A0A1 A1B1 B1B2 B2C2 C2C1 C1C2 C2D2 D2D3 D3D4 D4E4 E4E3"/>
    <route id="218" edges="A0A1 A1B1 B1B2 B2C2 C2C1 C1D1 D1D2 D2D3 D3D4 D4E4 E4E3"/>
    <route id="219" edges="A0A1 A1B1 B1B2 B2C2 C2C3 C3B3 B3B4 B4C4 C4D4 D4E4 E4E3"/>
    <route id="220" edges="A0A1 A1B1 B1B2 B2C2 C2C3 C3B3 B3C3 C3C4 C4D4 D4E4 E4E3"/>
    <route id="221" edges="A0A1 A1B1 B1B2 B2C2 C2C3 C3B3 B3C3 C3D3 D3D4 D4E4 E4E3"/>
    <route id="222" edges="A0A1 A1B1 B1B2 B2C2 C2C3 C3C2 C2D2 D2D3 D3D4 D4E4 E4E3"/>
    <route id="223" edges="A0A1 A1B1 B1B2 B2C2 C2C3 C3C4 C4B4 B4C4 C4D4 D4E4 E4E3"/>
    <route id="224" edges="A0A1 A1B1 B1B2 B2C2 C2C3 C3C4 C4C3 C3D3 D3D4 D4E4 E4E3"/>
    <route id="225" edges="A0A1 A1B1 B1B2 B2C2 C2C3 C3C4 C4D4 D4D3 D3D4 D4E4 E4E3"/>
    <route id="226" edges="A0A1 A1B1 B1B2 B2C2 C2C3 C3D3 D3C3 C3C4 C4D4 D4E4 E4E3"/>
    <route id="227" edges="A0A1 A1B1 B1B2 B2C2 C2C3 C3D3 D3D2 D2D3 D3D4 D4E4 E4E3"/>
    <route id="228" edges="A0A1 A1B1 B1B2 B2C2 C2C3 C3D3 D3D4 D4C4 C4D4 D4E4 E4E3"/>
    <route id="229" edges="A0A1 A1B1 B1B2 B2C2 C2C3 C3D3 D3E3 E3D3 D3D4 D4E4 E4E3"/>
    <route id="230" edges="A0A1 A1B1 B1B2 B2C2 C2C3 C3D3 D3E3 E3E4 E4D4 D4E4 E4E3"/>
    <route id="231" edges="A0A1 A1B1 B1B2 B2C2 C2D2 D2C2 C2C3 C3C4 C4D4 D4E4 E4E3"/>
    <route id="232" edges="A0A1 A1B1 B1B2 B2C2 C2D2 D2C2 C2C3 C3D3 D3D4 D4E4 E4E3"/>
    <route id="233" edges="A0A1 A1B1 B1B2 B2C2 C2D2 D2D1 D1D2 D2D3 D3D4 D4E4 E4E3"/>
    <route id="234" edges="A0A1 A1B1 B1B2 B2C2 C2D2 D2D3 D3C3 C3C4 C4D4 D4E4 E4E3"/>
    <route id="235" edges="A0A1 A1B1 B1B2 B2C2 C2D2 D2D3 D3C3 C3D3 D3D4 D4E4 E4E3"/>
    <route id="236" edges="A0A1 A1B1 B1B2 B2C2 C2D2 D2D3 D3D4 D4C4 C4D4 D4E4 E4E3"/>
    <route id="237" edges="A0A1 A1B1 B1B2 B2C2 C2D2 D2D3 D3E3 E3D3 D3D4 D4E4 E4E3"/>
    <route id="238" edges="A0A1 A1B1 B1B2 B2C2 C2D2 D2D3 D3E3 E3E4 E4D4 D4E4 E4E3"/>
    <route id="239" edges="A0A1 A1B1 B1B2 B2C2 C2D2 D2E2 E2D2 D2D3 D3D4 D4E4 E4E3"/>
    <route id="240" edges="A0A1 A1B1 B1B2 B2C2 C2D2 D2E2 E2E3 E3D3 D3D4 D4E4 E4E3"/>
    <route id="241" edges="A0A1 A1B1 B1B2 B2C2 C2D2 D2E2 E2E3 E3E4 E4D4 D4E4 E4E3"/>
    <route id="242" edges="A0A1 A1B1 B1C1 C1B1 B1B2 B2B3 B3B4 B4C4 C4D4 D4E4 E4E3"/>
    <route id="243" edges="A0A1 A1B1 B1C1 C1B1 B1B2 B2B3 B3C3 C3C4 C4D4 D4E4 E4E3"/>
    <route id="244" edges="A0A1 A1B1 B1C1 C1B1 B1B2 B2B3 B3C3 C3D3 D3D4 D4E4 E4E3"/>
    <route id="245" edges="A0A1 A1B1 B1C1 C1B1 B1B2 B2C2 C2C3 C3C4 C4D4 D4E4 E4E3"/>
    <route id="246" edges="A0A1 A1B1 B1C1 C1B1 B1B2 B2C2 C2C3 C3D3 D3D4 D4E4 E4E3"/>
    <route id="247" edges="A0A1 A1B1 B1C1 C1B1 B1B2 B2C2 C2D2 D2D3 D3D4 D4E4 E4E3"/>
    <route id="248" edges="A0A1 A1B1 B1C1 C1C0 C0C1 C1C2 C2C3 C3C4 C4D4 D4E4 E4E3"/>
    <route id="249" edges="A0A1 A1B1 B1C1 C1C0 C0C1 C1C2 C2C3 C3D3 D3D4 D4E4 E4E3"/>
    <route id="250" edges="A0A1 A1B1 B1C1 C1C0 C0C1 C1C2 C2D2 D2D3 D3D4 D4E4 E4E3"/>
    <route id="251" edges="A0A1 A1B1 B1C1 C1C0 C0C1 C1D1 D1D2 D2D3 D3D4 D4E4 E4E3"/>
    <route id="252" edges="A0A1 A1B1 B1C1 C1C0 C0D0 D0D1 D1D2 D2D3 D3D4 D4E4 E4E3"/>
    <route id="253" edges="A0A1 A1B1 B1C1 C1C2 C2B2 B2B3 B3B4 B4C4 C4D4 D4E4 E4E3"/>
    <route id="254" edges="A0A1 A1B1 B1C1 C1C2 C2B2 B2B3 B3C3 C3C4 C4D4 D4E4 E4E3"/>
    <route id="255" edges="A0A1 A1B1 B1C1 C1C2 C2B2 B2B3 B3C3 C3D3 D3D4 D4E4 E4E3"/>
    <route id="256" edges="A0A1 A1B1 B1C1 C1C2 C2B2 B2C2 C2C3 C3C4 C4D4 D4E4 E4E3"/>
    <route id="257" edges="A0A1 A1B1 B1C1 C1C2 C2B2 B2C2 C2C3 C3D3 D3D4 D4E4 E4E3"/>
    <route id="258" edges="A0A1 A1B1 B1C1 C1C2 C2B2 B2C2 C2D2 D2D3 D3D4 D4E4 E4E3"/>
    <route id="259" edges="A0A1 A1B1 B1C1 C1C2 C2C1 C1D1 D1D2 D2D3 D3D4 D4E4 E4E3"/>
    <route id="260" edges="A0A1 A1B1 B1C1 C1C2 C2C3 C3B3 B3B4 B4C4 C4D4 D4E4 E4E3"/>
    <route id="261" edges="A0A1 A1B1 B1C1 C1C2 C2C3 C3B3 B3C3 C3C4 C4D4 D4E4 E4E3"/>
    <route id="262" edges="A0A1 A1B1 B1C1 C1C2 C2C3 C3B3 B3C3 C3D3 D3D4 D4E4 E4E3"/>
    <route id="263" edges="A0A1 A1B1 B1C1 C1C2 C2C3 C3C2 C2D2 D2D3 D3D4 D4E4 E4E3"/>
    <route id="264" edges="A0A1 A1B1 B1C1 C1C2 C2C3 C3C4 C4B4 B4C4 C4D4 D4E4 E4E3"/>
    <route id="265" edges="A0A1 A1B1 B1C1 C1C2 C2C3 C3C4 C4C3 C3D3 D3D4 D4E4 E4E3"/>
    <route id="266" edges="A0A1 A1B1 B1C1 C1C2 C2C3 C3C4 C4D4 D4D3 D3D4 D4E4 E4E3"/>
    <route id="267" edges="A0A1 A1B1 B1C1 C1C2 C2C3 C3D3 D3C3 C3C4 C4D4 D4E4 E4E3"/>
    <route id="268" edges="A0A1 A1B1 B1C1 C1C2 C2C3 C3D3 D3D2 D2D3 D3D4 D4E4 E4E3"/>
    <route id="269" edges="A0A1 A1B1 B1C1 C1C2 C2C3 C3D3 D3D4 D4C4 C4D4 D4E4 E4E3"/>
    <route id="270" edges="A0A1 A1B1 B1C1 C1C2 C2C3 C3D3 D3E3 E3D3 D3D4 D4E4 E4E3"/>
    <route id="271" edges="A0A1 A1B1 B1C1 C1C2 C2C3 C3D3 D3E3 E3E4 E4D4 D4E4 E4E3"/>
    <route id="272" edges="A0A1 A1B1 B1C1 C1C2 C2D2 D2C2 C2C3 C3C4 C4D4 D4E4 E4E3"/>
    <route id="273" edges="A0A1 A1B1 B1C1 C1C2 C2D2 D2C2 C2C3 C3D3 D3D4 D4E4 E4E3"/>
    <route id="274" edges="A0A1 A1B1 B1C1 C1C2 C2D2 D2D1 D1D2 D2D3 D3D4 D4E4 E4E3"/>
    <route id="275" edges="A0A1 A1B1 B1C1 C1C2 C2D2 D2D3 D3C3 C3C4 C4D4 D4E4 E4E3"/>
    <route id="276" edges="A0A1 A1B1 B1C1 C1C2 C2D2 D2D3 D3C3 C3D3 D3D4 D4E4 E4E3"/>
    <route id="277" edges="A0A1 A1B1 B1C1 C1C2 C2D2 D2D3 D3D4 D4C4 C4D4 D4E4 E4E3"/>
    <route id="278" edges="A0A1 A1B1 B1C1 C1C2 C2D2 D2D3 D3E3 E3D3 D3D4 D4E4 E4E3"/>
    <route id="279" edges="A0A1 A1B1 B1C1 C1C2 C2D2 D2D3 D3E3 E3E4 E4D4 D4E4 E4E3"/>
    <route id="280" edges="A0A1 A1B1 B1C1 C1C2 C2D2 D2E2 E2D2 D2D3 D3D4 D4E4 E4E3"/>
    <route id="281" edges="A0A1 A1B1 B1C1 C1C2 C2D2 D2E2 E2E3 E3D3 D3D4 D4E4 E4E3"/>
    <route id="282" edges="A0A1 A1B1 B1C1 C1C2 C2D2 D2E2 E2E3 E3E4 E4D4 D4E4 E4E3"/>
    <route id="283" edges="A0A1 A1B1 B1C1 C1D1 D1C1 C1C2 C2C3 C3C4 C4D4 D4E4 E4E3"/>
    <route id="284" edges="A0A1 A1B1 B1C1 C1D1 D1C1 C1C2 C2C3 C3D3 D3D4 D4E4 E4E3"/>
    <route id="285" edges="A0A1 A1B1 B1C1 C1D1 D1C1 C1C2 C2D2 D2D3 D3D4 D4E4 E4E3"/>
    <route id="286" edges="A0A1 A1B1 B1C1 C1D1 D1D0 D0D1 D1D2 D2D3 D3D4 D4E4 E4E3"/>
    <route id="287" edges="A0A1 A1B1 B1C1 C1D1 D1D2 D2C2 C2C3 C3C4 C4D4 D4E4 E4E3"/>
    <route id="288" edges="A0A1 A1B1 B1C1 C1D1 D1D2 D2C2 C2C3 C3D3 D3D4 D4E4 E4E3"/>
    <route id="289" edges="A0A1 A1B1 B1C1 C1D1 D1D2 D2C2 C2D2 D2D3 D3D4 D4E4 E4E3"/>
    <route id="290" edges="A0A1 A1B1 B1C1 C1D1 D1D2 D2D3 D3C3 C3C4 C4D4 D4E4 E4E3"/>
    <route id="291" edges="A0A1 A1B1 B1C1 C1D1 D1D2 D2D3 D3C3 C3D3 D3D4 D4E4 E4E3"/>
    <route id="292" edges="A0A1 A1B1 B1C1 C1D1 D1D2 D2D3 D3D4 D4C4 C4D4 D4E4 E4E3"/>
    <route id="293" edges="A0A1 A1B1 B1C1 C1D1 D1D2 D2D3 D3E3 E3D3 D3D4 D4E4 E4E3"/>
    <route id="294" edges="A0A1 A1B1 B1C1 C1D1 D1D2 D2D3 D3E3 E3E4 E4D4 D4E4 E4E3"/>
    <route id="295" edges="A0A1 A1B1 B1C1 C1D1 D1D2 D2E2 E2D2 D2D3 D3D4 D4E4 E4E3"/>
    <route id="296" edges="A0A1 A1B1 B1C1 C1D1 D1D2 D2E2 E2E3 E3D3 D3D4 D4E4 E4E3"/>
    <route id="297" edges="A0A1 A1B1 B1C1 C1D1 D1D2 D2E2 E2E3 E3E4 E4D4 D4E4 E4E3"/>
    <route id="298" edges="A0A1 A1B1 B1C1 C1D1 D1E1 E1D1 D1D2 D2D3 D3D4 D4E4 E4E3"/>
    <route id="299" edges="A0A1 A1B1 B1C1 C1D1 D1E1 E1E2 E2D2 D2D3 D3D4 D4E4 E4E3"/>
    <route id="300" edges="A0A1 A1B1 B1C1 C1D1 D1E1 E1E2 E2E3 E3D3 D3D4 D4E4 E4E3"/>
    <route id="301" edges="A0A1 A1B1 B1C1 C1D1 D1E1 E1E2 E2E3 E3E4 E4D4 D4E4 E4E3"/>
    <route id="302" edges="A0A1 A1A0 A0B0 B0B1 B1A1 A1A2 A2A3 A3A4 A4B4 B4C4 C4D4 D4E4 E4E3"/>
    <route id="303" edges="A0A1 A1A0 A0B0 B0B1 B1A1 A1A2 A2A3 A3B3 B3B4 B4C4 C4D4 D4E4 E4E3"/>
    <route id="304" edges="A0A1 A1A0 A0B0 B0B1 B1A1 A1A2 A2A3 A3B3 B3C3 C3C4 C4D4 D4E4 E4E3"/>
    <route id="305" edges="A0A1 A1A0 A0B0 B0B1 B1A1 A1A2 A2A3 A3B3 B3C3 C3D3 D3D4 D4E4 E4E3"/>
    <route id="306" edges="A0A1 A1A0 A0B0 B0B1 B1A1 A1A2 A2B2 B2B3 B3B4 B4C4 C4D4 D4E4 E4E3"/>
    <route id="307" edges="A0A1 A1A0 A0B0 B0B1 B1A1 A1A2 A2B2 B2B3 B3C3 C3C4 C4D4 D4E4 E4E3"/>
    <route id="308" edges="A0A1 A1A0 A0B0 B0B1 B1A1 A1A2 A2B2 B2B3 B3C3 C3D3 D3D4 D4E4 E4E3"/>
    <route id="309" edges="A0A1 A1A0 A0B0 B0B1 B1A1 A1A2 A2B2 B2C2 C2C3 C3C4 C4D4 D4E4 E4E3"/>
    <route id="310" edges="A0A1 A1A0 A0B0 B0B1 B1A1 A1A2 A2B2 B2C2 C2C3 C3D3 D3D4 D4E4 E4E3"/>
    <route id="311" edges="A0A1 A1A0 A0B0 B0B1 B1A1 A1A2 A2B2 B2C2 C2D2 D2D3 D3D4 D4E4 E4E3"/>
    <route id="312" edges="A0A1 A1A0 A0B0 B0B1 B1A1 A1B1 B1B2 B2B3 B3B4 B4C4 C4D4 D4E4 E4E3"/>
    <route id="313" edges="A0A1 A1A0 A0B0 B0B1 B1A1 A1B1 B1B2 B2B3 B3C3 C3C4 C4D4 D4E4 E4E3"/>
    <route id="314" edges="A0A1 A1A0 A0B0 B0B1 B1A1 A1B1 B1B2 B2B3 B3C3 C3D3 D3D4 D4E4 E4E3"/>
    <route id="315" edges="A0A1 A1A0 A0B0 B0B1 B1A1 A1B1 B1B2 B2C2 C2C3 C3C4 C4D4 D4E4 E4E3"/>
    <route id="316" edges="A0A1 A1A0 A0B0 B0B1 B1A1 A1B1 B1B2 B2C2 C2C3 C3D3 D3D4 D4E4 E4E3"/>
    <route id="317" edges="A0A1 A1A0 A0B0 B0B1 B1A1 A1B1 B1B2 B2C2 C2D2 D2D3 D3D4 D4E4 E4E3"/>
    <route id="318" edges="A0A1 A1A0 A0B0 B0B1 B1A1 A1B1 B1C1 C1C2 C2C3 C3C4 C4D4 D4E4 E4E3"/>
    <route id="319" edges="A0A1 A1A0 A0B0 B0B1 B1A1 A1B1 B1C1 C1C2 C2C3 C3D3 D3D4 D4E4 E4E3"/>
    <route id="320" edges="A0A1 A1A0 A0B0 B0B1 B1A1 A1B1 B1C1 C1C2 C2D2 D2D3 D3D4 D4E4 E4E3"/>
    <route id="321" edges="A0A1 A1A0 A0B0 B0B1 B1A1 A1B1 B1C1 C1D1 D1D2 D2D3 D3D4 D4E4 E4E3"/>
    <route id="322" edges="A0A1 A1A0 A0B0 B0B1 B1B0 B0C0 C0C1 C1C2 C2C3 C3C4 C4D4 D4E4 E4E3"/>
    <route id="323" edges="A0A1 A1A0 A0B0 B0B1 B1B0 B0C0 C0C1 C1C2 C2C3 C3D3 D3D4 D4E4 E4E3"/>
    <route id="324" edges="A0A1 A1A0 A0B0 B0B1 B1B0 B0C0 C0C1 C1C2 C2D2 D2D3 D3D4 D4E4 E4E3"/>
    <route id="325" edges="A0A1 A1A0 A0B0 B0B1 B1B0 B0C0 C0C1 C1D1 D1D2 D2D3 D3D4 D4E4 E4E3"/>
    <route id="326" edges="A0A1 A1A0 A0B0 B0B1 B1B0 B0C0 C0D0 D0D1 D1D2 D2D3 D3D4 D4E4 E4E3"/>
    <route id="327" edges="A0A1 A1A0 A0B0 B0B1 B1B2 B2A2 A2A3 A3A4 A4B4 B4C4 C4D4 D4E4 E4E3"/>
    <route id="328" edges="A0A1 A1A0 A0B0 B0B1 B1B2 B2A2 A2A3 A3B3 B3B4 B4C4 C4D4 D4E4 E4E3"/>
    <route id="329" edges="A0A1 A1A0 A0B0 B0B1 B1B2 B2A2 A2A3 A3B3 B3C3 C3C4 C4D4 D4E4 E4E3"/>
    <route id="330" edges="A0A1 A1A0 A0B0 B0B1 B1B2 B2A2 A2A3 A3B3 B3C3 C3D3 D3D4 D4E4 E4E3"/>
    <route id="331" edges="A0A1 A1A0 A0B0 B0B1 B1B2 B2A2 A2B2 B2B3 B3B4 B4C4 C4D4 D4E4 E4E3"/>
    <route id="332" edges="A0A1 A1A0 A0B0 B0B1 B1B2 B2A2 A2B2 B2B3 B3C3 C3C4 C4D4 D4E4 E4E3"/>
    <route id="333" edges="A0A1 A1A0 A0B0 B0B1 B1B2 B2A2 A2B2 B2B3 B3C3 C3D3 D3D4 D4E4 E4E3"/>
    <route id="334" edges="A0A1 A1A0 A0B0 B0B1 B1B2 B2A2 A2B2 B2C2 C2C3 C3C4 C4D4 D4E4 E4E3"/>
    <route id="335" edges="A0A1 A1A0 A0B0 B0B1 B1B2 B2A2 A2B2 B2C2 C2C3 C3D3 D3D4 D4E4 E4E3"/>
    <route id="336" edges="A0A1 A1A0 A0B0 B0B1 B1B2 B2A2 A2B2 B2C2 C2D2 D2D3 D3D4 D4E4 E4E3"/>
    <route id="337" edges="A0A1 A1A0 A0B0 B0B1 B1B2 B2B1 B1C1 C1C2 C2C3 C3C4 C4D4 D4E4 E4E3"/>
    <route id="338" edges="A0A1 A1A0 A0B0 B0B1 B1B2 B2B1 B1C1 C1C2 C2C3 C3D3 D3D4 D4E4 E4E3"/>
    <route id="339" edges="A0A1 A1A0 A0B0 B0B1 B1B2 B2B1 B1C1 C1C2 C2D2 D2D3 D3D4 D4E4 E4E3"/>
    <route id="340" edges="A0A1 A1A0 A0B0 B0B1 B1B2 B2B1 B1C1 C1D1 D1D2 D2D3 D3D4 D4E4 E4E3"/>
    <route id="341" edges="A0A1 A1A0 A0B0 B0B1 B1B2 B2B3 B3A3 A3A4 A4B4 B4C4 C4D4 D4E4 E4E3"/>
    <route id="342" edges="A0A1 A1A0 A0B0 B0B1 B1B2 B2B3 B3A3 A3B3 B3B4 B4C4 C4D4 D4E4 E4E3"/>
    <route id="343" edges="A0A1 A1A0 A0B0 B0B1 B1B2 B2B3 B3A3 A3B3 B3C3 C3C4 C4D4 D4E4 E4E3"/>
    <route id="344" edges="A0A1 A1A0 A0B0 B0B1 B1B2 B2B3 B3A3 A3B3 B3C3 C3D3 D3D4 D4E4 E4E3"/>
    <route id="345" edges="A0A1 A1A0 A0B0 B0B1 B1B2 B2B3 B3B2 B2C2 C2C3 C3C4 C4D4 D4E4 E4E3"/>
    <route id="346" edges="A0A1 A1A0 A0B0 B0B1 B1B2 B2B3 B3B2 B2C2 C2C3 C3D3 D3D4 D4E4 E4E3"/>