<?xml version="1.0" encoding="UTF-8"?>

<!-- generated on sam. 28 janv. 2023 18:21:21 by Eclipse SUMO netedit Version 1.4.0
<configuration xmlns:xsi="http://www.w3.org/2001/XMLSchema-instance" xsi:noNamespaceSchemaLocation="http://sumo.dlr.de/xsd/netconvertConfiguration.xsd">

    <input>
        <sumo-net-file value="/home/tudor/Documents/TIPE/AfterLit/y_intersect.net.xml"/>
    </input>

    <output>
        <output-file value="/home/tudor/Documents/TIPE/AfterLit/y_intersect.net.xml"/>
    </output>

    <processing>
        <geometry.min-radius.fix.railways value="false"/>
        <geometry.max-grade.fix value="false"/>
        <offset.disable-normalization value="true"/>
        <lefthand value="false"/>
    </processing>

    <junctions>
        <no-turnarounds value="true"/>
        <junctions.corner-detail value="5"/>
        <junctions.limit-turn-speed value="5.5"/>
        <rectangular-lane-cut value="false"/>
    </junctions>

    <pedestrian>
        <walkingareas value="false"/>
    </pedestrian>

    <report>
        <aggregate-warnings value="5"/>
    </report>

</configuration>
-->

<net version="1.3" junctionCornerDetail="5" limitTurnSpeed="5.50" xmlns:xsi="http://www.w3.org/2001/XMLSchema-instance" xsi:noNamespaceSchemaLocation="http://sumo.dlr.de/xsd/net_file.xsd">

    <location netOffset="0.00,0.00" convBoundary="-53.57,3.24,141.52,124.87" origBoundary="-10000000000.00,-10000000000.00,10000000000.00,10000000000.00" projParameter="!"/>

    <edge id=":gneJ1_0" function="internal">
        <lane id=":gneJ1_0_0" index="0" speed="7.83" length="10.76" shape="45.13,29.46 41.71,30.60 39.26,32.02 37.77,33.72 37.24,35.71"/>
    </edge>
    <edge id=":gneJ1_1" function="internal">
        <lane id=":gneJ1_1_0" index="0" speed="7.40" length="9.52" shape="33.29,27.80 35.07,28.75 36.32,30.38 37.04,32.71 37.24,35.71"/>
    </edge>

    <edge id="gneE0" from="gneJ0" to="gneJ1" priority="-1">
        <lane id="gneE0_0" index="0" speed="13.89" length="90.17" shape="-53.11,1.99 33.29,27.80"/>
    </edge>
    <edge id="gneE1" from="gneJ2" to="gneJ1" priority="-1">
        <lane id="gneE1_0" index="0" speed="13.89" length="99.88" shape="141.92,4.79 45.13,29.46"/>
    </edge>
    <edge id="gneE2" from="gneJ1" to="gneJ3" priority="-1">
        <lane id="gneE2_0" index="0" speed="13.89" length="89.21" shape="37.24,35.71 35.47,124.90"/>
    </edge>

    <tlLogic id="gneJ1" type="static" programID="0" offset="0">
        <phase duration="42" state="Gr"/>
        <phase duration="3"  state="yr"/>
        <phase duration="42" state="rG"/>
        <phase duration="3"  state="ry"/>
    </tlLogic>

    <junction id="gneJ0" type="dead_end" x="-53.57" y="3.52" incLanes="" intLanes="" shape="-53.57,3.52 -52.65,0.45"/>
    <junction id="gneJ1" type="traffic_light" x="35.75" y="30.20" incLanes="gneE1_0 gneE0_0" intLanes=":gneJ1_0_0 :gneJ1_1_0" shape="45.52,31.01 44.73,27.91 42.42,28.37 40.68,28.45 39.22,28.20 37.77,27.70 36.04,27.03 33.75,26.26 32.83,29.33 34.44,30.42 34.99,31.35 35.38,32.54 35.59,33.98 35.64,35.68 38.84,35.74 39.61,33.86 40.54,33.04 41.84,32.29 43.50,31.61">
        <request index="0" response="00" foes="10" cont="0"/>
        <request index="1" response="01" foes="01" cont="0"/>
    </junction>
    <junction id="gneJ2" type="dead_end" x="141.52" y="3.24" incLanes="" intLanes="" shape="141.52,3.24 142.31,6.34"/>
    <junction id="gneJ3" type="dead_end" x="33.87" y="124.87" incLanes="gneE2_0" intLanes="" shape="37.07,124.93 33.87,124.87"/>

    <connection from="gneE0" to="gneE2" fromLane="0" toLane="0" via=":gneJ1_1_0" tl="gneJ1" linkIndex="1" dir="l" state="o"/>
    <connection from="gneE1" to="gneE2" fromLane="0" toLane="0" via=":gneJ1_0_0" tl="gneJ1" linkIndex="0" dir="r" state="O"/>

    <connection from=":gneJ1_0" to="gneE2" fromLane="0" toLane="0" dir="r" state="M"/>
    <connection from=":gneJ1_1" to="gneE2" fromLane="0" toLane="0" dir="l" state="M"/>

</net>
