<?xml version="1.0" encoding="UTF-8"?>

<!-- generated on 2023-01-05 15:38:57.984236 by randomTrips.py v1_15_0+0002-e6790248698
<configuration>
    <binomial value="100"/>
    <net-file value="randomgrid.net.xml"/>
    <output-trip-file value="binomial10.trips.xml"/>
</configuration>
-->

<routes xmlns:xsi="http://www.w3.org/2001/XMLSchema-instance" xsi:noNamespaceSchemaLocation="http://sumo.dlr.de/xsd/routes_file.xsd">
    <trip id="0" depart="0.00" from="44950" to="34284"/>
    <trip id="1" depart="1.00" from="-47766" to="-12472"/>
    <trip id="2" depart="2.00" from="462" to="-45873"/>
    <trip id="3" depart="2.00" from="41316" to="2623"/>
    <trip id="4" depart="2.00" from="-18767" to="5761"/>
    <trip id="5" depart="3.00" from="60793" to="16018"/>
    <trip id="6" depart="3.00" from="-43640" to="-6333"/>
    <trip id="7" depart="4.00" from="38092" to="43396"/>
    <trip id="8" depart="4.00" from="-52629" to="41621"/>
    <trip id="9" depart="6.00" from="-64008" to="21971"/>
    <trip id="10" depart="8.00" from="44784" to="60011"/>
    <trip id="11" depart="10.00" from="52902" to="-25779"/>
    <trip id="12" depart="11.00" from="54527" to="19262"/>
    <trip id="13" depart="11.00" from="-4527" to="-3507"/>
    <trip id="14" depart="11.00" from="37568" to="-30142"/>
    <trip id="15" depart="13.00" from="-19142" to="-41246"/>
    <trip id="16" depart="17.00" from="14352" to="63140"/>
    <trip id="17" depart="18.00" from="16327" to="-22120"/>
    <trip id="18" depart="19.00" from="-12593" to="-45812"/>
    <trip id="19" depart="20.00" from="-9167" to="-56067"/>
    <trip id="20" depart="20.00" from="14486" to="-1154"/>
    <trip id="21" depart="21.00" from="-29229" to="11781"/>
    <trip id="22" depart="21.00" from="-45901" to="-54800"/>
    <trip id="23" depart="23.00" from="-24635" to="4853"/>
    <trip id="24" depart="24.00" from="41632" to="38632"/>
    <trip id="25" depart="24.00" from="65578" to="-3366"/>
    <trip id="26" depart="25.00" from="-67182" to="-24492"/>
    <trip id="27" depart="25.00" from="3095" to="4873"/>
    <trip id="28" depart="25.00" from="24924" to="-64724"/>
    <trip id="29" depart="26.00" from="-33032" to="18953"/>
    <trip id="30" depart="26.00" from="-59258" to="-37556"/>
    <trip id="31" depart="26.00" from="25742" to="54092"/>
    <trip id="32" depart="28.00" from="60164" to="-33615"/>
    <trip id="33" depart="29.00" from="-56217" to="38631"/>
    <trip id="34" depart="31.00" from="59372" to="27488"/>
    <trip id="35" depart="31.00" from="-3948" to="46975"/>
    <trip id="36" depart="32.00" from="-42350" to="42607"/>
    <trip id="37" depart="33.00" from="27502" to="60540"/>
    <trip id="38" depart="34.00" from="-19901" to="229"/>
    <trip id="39" depart="36.00" from="27087" to="-65828"/>
    <trip id="40" depart="36.00" from="-17687" to="30699"/>
    <trip id="41" depart="37.00" from="19565" to="15867"/>
    <trip id="42" depart="37.00" from="-38615" to="-36643"/>
    <trip id="43" depart="39.00" from="25436" to="33065"/>
    <trip id="44" depart="39.00" from="-1992" to="-25795"/>
    <trip id="45" depart="40.00" from="-27074" to="9495"/>
    <trip id="46" depart="40.00" from="48225" to="-39902"/>
    <trip id="47" depart="42.00" from="46025" to="53930"/>
    <trip id="48" depart="42.00" from="60581" to="6512"/>
    <trip id="49" depart="42.00" from="-61286" to="-4514"/>
    <trip id="50" depart="42.00" from="-55018" to="-60792"/>
    <trip id="51" depart="43.00" from="-14837" to="44649"/>
    <trip id="52" depart="43.00" from="23796" to="-56682"/>
    <trip id="53" depart="46.00" from="-56405" to="-43107"/>
    <trip id="54" depart="48.00" from="55737" to="-38206"/>
    <trip id="55" depart="48.00" from="-12742" to="24938"/>
    <trip id="56" depart="49.00" from="29816" to="-52629"/>
    <trip id="57" depart="49.00" from="6176" to="33038"/>
    <trip id="58" depart="51.00" from="-25731" to="-26387"/>
    <trip id="59" depart="51.00" from="8756" to="-60164"/>
    <trip id="60" depart="53.00" from="64729" to="48993"/>
    <trip id="61" depart="54.00" from="-30020" to="-19891"/>
    <trip id="62" depart="55.00" from="-37343" to="-23304"/>
    <trip id="63" depart="55.00" from="7918" to="-14568"/>
    <trip id="64" depart="57.00" from="36983" to="7554"/>
    <trip id="65" depart="58.00" from="-41231" to="6650"/>
    <trip id="66" depart="65.00" from="68229" to="29075"/>
    <trip id="67" depart="66.00" from="-2284" to="-29811"/>
    <trip id="68" depart="66.00" from="2316" to="36621"/>
    <trip id="69" depart="67.00" from="45" to="64736"/>
    <trip id="70" depart="67.00" from="-43163" to="1474"/>
    <trip id="71" depart="70.00" from="-65863" to="51016"/>
    <trip id="72" depart="70.00" from="61818" to="-9431"/>
    <trip id="73" depart="70.00" from="-67180" to="60017"/>
    <trip id="74" depart="70.00" from="-65695" to="63899"/>
    <trip id="75" depart="71.00" from="-3195" to="-1950"/>
    <trip id="76" depart="72.00" from="18599" to="31550"/>
    <trip id="77" depart="72.00" from="-35872" to="-37374"/>
    <trip id="78" depart="74.00" from="-44846" to="49985"/>
    <trip id="79" depart="74.00" from="45640" to="5204"/>
    <trip id="80" depart="74.00" from="-25389" to="-17671"/>
    <trip id="81" depart="75.00" from="41452" to="43295"/>
    <trip id="82" depart="76.00" from="54527" to="-18487"/>
    <trip id="83" depart="78.00" from="-18193" to="34217"/>
    <trip id="84" depart="78.00" from="18193" to="8913"/>
    <trip id="85" depart="78.00" from="199" to="8771"/>
    <trip id="86" depart="79.00" from="-17388" to="15729"/>
    <trip id="87" depart="80.00" from="35218" to="19871"/>
    <trip id="88" depart="81.00" from="-45062" to="65110"/>
    <trip id="89" depart="81.00" from="-5557" to="68377"/>
    <trip id="90" depart="82.00" from="-9914" to="-27104"/>
    <trip id="91" depart="83.00" from="56275" to="-31436"/>
    <trip id="92" depart="85.00" from="-51918" to="2326"/>
    <trip id="93" depart="86.00" from="61812" to="-26276"/>
    <trip id="94" depart="86.00" from="9243" to="-12133"/>
    <trip id="95" depart="87.00" from="-52955" to="-43859"/>
    <trip id="96" depart="88.00" from="52366" to="-44783"/>
    <trip id="97" depart="89.00" from="42964" to="22278"/>
    <trip id="98" depart="89.00" from="-64010" to="51234"/>
    <trip id="99" depart="90.00" from="-55070" to="-36846"/>
    <trip id="100" depart="95.00" from="-3938" to="-53601"/>
    <trip id="101" depart="95.00" from="45287" to="56511"/>
    <trip id="102" depart="96.00" from="-7031" to="33065"/>
    <trip id="103" depart="96.00" from="1994" to="-23615"/>
    <trip id="104" depart="101.00" from="48230" to="-12970"/>
    <trip id="105" depart="102.00" from="-24648" to="-56273"/>
    <trip id="106" depart="102.00" from="-1785" to="18501"/>
    <trip id="107" depart="104.00" from="30302" to="4167"/>
    <trip id="108" depart="104.00" from="-60139" to="-2650"/>
    <trip id="109" depart="105.00" from="-46139" to="-20582"/>
    <trip id="110" depart="106.00" from="-42453" to="-53608"/>
    <trip id="111" depart="106.00" from="-60574" to="-51052"/>
    <trip id="112" depart="107.00" from="-25768" to="57586"/>
    <trip id="113" depart="110.00" from="-13515" to="31222"/>
    <trip id="114" depart="112.00" from="38640" to="2251"/>
    <trip id="115" depart="114.00" from="47523" to="-12412"/>
    <trip id="116" depart="114.00" from="44653" to="-5981"/>
    <trip id="117" depart="116.00" from="-3936" to="18189"/>
    <trip id="118" depart="119.00" from="20646" to="36471"/>
    <trip id="119" depart="119.00" from="-56067" to="-13176"/>
    <trip id="120" depart="121.00" from="-37691" to="48225"/>
    <trip id="121" depart="123.00" from="53278" to="-16174"/>
    <trip id="122" depart="124.00" from="-1178" to="47159"/>
    <trip id="123" depart="124.00" from="43559" to="-37556"/>
    <trip id="124" depart="124.00" from="-29699" to="-33106"/>
    <trip id="125" depart="127.00" from="31715" to="20582"/>
    <trip id="126" depart="128.00" from="-13494" to="-15863"/>
    <trip id="127" depart="128.00" from="-63292" to="38068"/>
    <trip id="128" depart="129.00" from="43672" to="12295"/>
    <trip id="129" depart="130.00" from="4179" to="47154"/>
    <trip id="130" depart="131.00" from="55584" to="-25043"/>
    <trip id="131" depart="132.00" from="-31045" to="63652"/>
    <trip id="132" depart="132.00" from="-50274" to="24890"/>
    <trip id="133" depart="134.00" from="52772" to="43168"/>
    <trip id="134" depart="134.00" from="-6512" to="46292"/>
    <trip id="135" depart="135.00" from="-1774" to="54897"/>
    <trip id="136" depart="136.00" from="13042" to="10696"/>
    <trip id="137" depart="136.00" from="-29971" to="-24620"/>
    <trip id="138" depart="137.00" from="42965" to="66211"/>
    <trip id="139" depart="137.00" from="-68385" to="50500"/>
    <trip id="140" depart="138.00" from="-37570" to="43948"/>
    <trip id="141" depart="138.00" from="-52905" to="8913"/>
    <trip id="142" depart="139.00" from="11276" to="-43292"/>
    <trip id="143" depart="141.00" from="65689" to="-5"/>
    <trip id="144" depart="141.00" from="-31719" to="-22272"/>
    <trip id="145" depart="141.00" from="3100" to="63764"/>
    <trip id="146" depart="143.00" from="-41087" to="-3940"/>
    <trip id="147" depart="143.00" from="22350" to="-41453"/>
    <trip id="148" depart="145.00" from="22120" to="-35502"/>
    <trip id="149" depart="147.00" from="-51056" to="-60559"/>
    <trip id="150" depart="147.00" from="26964" to="13066"/>
    <trip id="151" depart="149.00" from="13046" to="-19681"/>
    <trip id="152" depart="150.00" from="24368" to="3220"/>
    <trip id="153" depart="152.00" from="-5064" to="-13677"/>
    <trip id="154" depart="152.00" from="-54508" to="13221"/>
    <trip id="155" depart="152.00" from="-45652" to="-20423"/>
    <trip id="156" depart="152.00" from="-19879" to="-39304"/>
    <trip id="157" depart="154.00" from="-6010" to="-8579"/>
    <trip id="158" depart="154.00" from="2660" to="8512"/>
    <trip id="159" depart="156.00" from="-32882" to="30727"/>
    <trip id="160" depart="156.00" from="-39139" to="9543"/>
    <trip id="161" depart="164.00" from="6333" to="5961"/>
    <trip id="162" depart="164.00" from="-19864" to="13670"/>
    <trip id="163" depart="166.00" from="-19434" to="-2480"/>
    <trip id="164" depart="166.00" from="-56873" to="66700"/>
    <trip id="165" depart="166.00" from="-5204" to="64041"/>
    <trip id="166" depart="167.00" from="-7759" to="-56405"/>
    <trip id="167" depart="167.00" from="40278" to="16326"/>
    <trip id="168" depart="168.00" from="-63282" to="-20034"/>
    <trip id="169" depart="170.00" from="24620" to="-56405"/>
    <trip id="170" depart="172.00" from="-54128" to="-8903"/>
    <trip id="171" depart="173.00" from="-2468" to="-40946"/>
    <trip id="172" depart="174.00" from="-60542" to="18763"/>
    <trip id="173" depart="175.00" from="56828" to="1962"/>
    <trip id="174" depart="178.00" from="12970" to="-33043"/>
    <trip id="175" depart="179.00" from="40036" to="-22281"/>
    <trip id="176" depart="179.00" from="43707" to="-30450"/>
    <trip id="177" depart="180.00" from="-10646" to="63899"/>
    <trip id="178" depart="180.00" from="23328" to="-49866"/>
    <trip id="179" depart="180.00" from="57582" to="1597"/>
    <trip id="180" depart="181.00" from="-63276" to="-45785"/>
    <trip id="181" depart="182.00" from="55054" to="1980"/>
    <trip id="182" depart="183.00" from="47789" to="68480"/>
    <trip id="183" depart="184.00" from="47408" to="-64014"/>
    <trip id="184" depart="186.00" from="5977" to="-45454"/>
    <trip id="185" depart="186.00" from="-25389" to="-61818"/>
    <trip id="186" depart="186.00" from="-29401" to="1242"/>
    <trip id="187" depart="187.00" from="39265" to="-17883"/>
    <trip id="188" depart="188.00" from="-65873" to="23169"/>
    <trip id="189" depart="188.00" from="-40278" to="-39304"/>
    <trip id="190" depart="189.00" from="-17692" to="-29181"/>
    <trip id="191" depart="189.00" from="-3372" to="-35991"/>
    <trip id="192" depart="189.00" from="1025" to="19681"/>
    <trip id="193" depart="191.00" from="-8730" to="40285"/>
    <trip id="194" depart="192.00" from="27081" to="-37675"/>
    <trip id="195" depart="192.00" from="63643" to="11445"/>
    <trip id="196" depart="193.00" from="-2335" to="-34282"/>
    <trip id="197" depart="193.00" from="-24775" to="-8402"/>
    <trip id="198" depart="193.00" from="43945" to="17145"/>
    <trip id="199" depart="194.00" from="61085" to="-3590"/>
    <trip id="200" depart="195.00" from="-3153" to="29075"/>
    <trip id="201" depart="196.00" from="-35707" to="18823"/>
    <trip id="202" depart="197.00" from="37693" to="9225"/>
    <trip id="203" depart="197.00" from="-28693" to="-54687"/>
    <trip id="204" depart="197.00" from="12750" to="-52977"/>
    <trip id="205" depart="199.00" from="-15159" to="67875"/>
    <trip id="206" depart="201.00" from="-50516" to="11919"/>
    <trip id="207" depart="202.00" from="-40557" to="23441"/>
    <trip id="208" depart="203.00" from="23590" to="66092"/>
    <trip id="209" depart="203.00" from="62456" to="43707"/>
    <trip id="210" depart="203.00" from="-30007" to="39152"/>
    <trip id="211" depart="204.00" from="6031" to="-45287"/>
    <trip id="212" depart="206.00" from="-38772" to="64191"/>
    <trip id="213" depart="206.00" from="-41877" to="-6356"/>
    <trip id="214" depart="206.00" from="-51234" to="40034"/>
    <trip id="215" depart="207.00" from="-67409" to="-43164"/>
    <trip id="216" depart="208.00" from="-15084" to="38449"/>
    <trip id="217" depart="208.00" from="13504" to="-23603"/>
    <trip id="218" depart="209.00" from="-62565" to="31715"/>
    <trip id="219" depart="209.00" from="29951" to="-15744"/>
    <trip id="220" depart="209.00" from="24249" to="18950"/>
    <trip id="221" depart="210.00" from="27703" to="-50858"/>
    <trip id="222" depart="210.00" from="48228" to="45334"/>
    <trip id="223" depart="210.00" from="15133" to="-16132"/>
    <trip id="224" depart="212.00" from="22116" to="61456"/>
    <trip id="225" depart="212.00" from="-16018" to="14355"/>
    <trip id="226" depart="213.00" from="11118" to="37413"/>
    <trip id="227" depart="217.00" from="9535" to="40946"/>
    <trip id="228" depart="218.00" from="-66352" to="-38656"/>
    <trip id="229" depart="218.00" from="-11792" to="-48935"/>
    <trip id="230" depart="218.00" from="53595" to="49866"/>
    <trip id="231" depart="219.00" from="-41265" to="12952"/>
    <trip id="232" depart="220.00" from="-20582" to="15745"/>
    <trip id="233" depart="222.00" from="68710" to="13690"/>
    <trip id="234" depart="223.00" from="46293" to="12601"/>
    <trip id="235" depart="223.00" from="23804" to="48057"/>
    <trip id="236" depart="223.00" from="61270" to="-44647"/>
    <trip id="237" depart="224.00" from="-43326" to="-31173"/>
    <trip id="238" depart="224.00" from="-13510" to="-1934"/>
    <trip id="239" depart="225.00" from="-35680" to="-2396"/>
    <trip id="240" depart="225.00" from="-26247" to="-61456"/>
    <trip id="241" depart="225.00" from="24466" to="-31032"/>
    <trip id="242" depart="227.00" from="-59847" to="-24360"/>
    <trip id="243" depart="227.00" from="59127" to="71"/>
    <trip id="244" depart="228.00" from="-1785" to="-25080"/>
    <trip id="245" depart="228.00" from="-21991" to="-50871"/>
    <trip id="246" depart="229.00" from="43357" to="-52617"/>
    <trip id="247" depart="231.00" from="45652" to="33106"/>
    <trip id="248" depart="231.00" from="62823" to="54643"/>
    <trip id="249" depart="232.00" from="-51918" to="37213"/>
    <trip id="250" depart="232.00" from="-43908" to="20694"/>
    <trip id="251" depart="234.00" from="-9255" to="23603"/>
    <trip id="252" depart="234.00" from="-64751" to="-43681"/>
    <trip id="253" depart="234.00" from="15621" to="-13217"/>
    <trip id="254" depart="234.00" from="9177" to="-12736"/>
    <trip id="255" depart="236.00" from="24360" to="-52955"/>
    <trip id="256" depart="237.00" from="41808" to="-56521"/>
    <trip id="257" depart="240.00" from="41334" to="-865"/>
    <trip id="258" depart="241.00" from="19841" to="-64559"/>
    <trip id="259" depart="242.00" from="-60787" to="-30450"/>
    <trip id="260" depart="242.00" from="39902" to="46276"/>
    <trip id="261" depart="243.00" from="-44253" to="61844"/>
    <trip id="262" depart="245.00" from="-30162" to="35236"/>
    <trip id="263" depart="246.00" from="-52905" to="-56094"/>
    <trip id="264" depart="250.00" from="-33226" to="60756"/>
    <trip id="265" depart="255.00" from="-29533" to="-62203"/>
    <trip id="266" depart="255.00" from="-20193" to="-58593"/>
    <trip id="267" depart="257.00" from="-28576" to="-53597"/>
    <trip id="268" depart="258.00" from="34891" to="10285"/>
    <trip id="269" depart="259.00" from="-41665" to="27488"/>
    <trip id="270" depart="259.00" from="-17692" to="34309"/>
    <trip id="271" depart="262.00" from="-61907" to="-18738"/>
    <trip id="272" depart="262.00" from="2387" to="17888"/>
    <trip id="273" depart="264.00" from="-19676" to="-41877"/>
    <trip id="274" depart="265.00" from="-46275" to="-14498"/>
    <trip id="275" depart="265.00" from="37395" to="45812"/>
    <trip id="276" depart="265.00" from="63155" to="-39634"/>
    <trip id="277" depart="267.00" from="54809" to="22327"/>
    <trip id="278" depart="269.00" from="22274" to="-52904"/>
    <trip id="279" depart="269.00" from="21773" to="53278"/>
    <trip id="280" depart="270.00" from="583" to="30676"/>
    <trip id="281" depart="270.00" from="-24205" to="-20648"/>
    <trip id="282" depart="271.00" from="3939" to="-8696"/>
    <trip id="283" depart="271.00" from="1002" to="-4316"/>
    <trip id="284" depart="272.00" from="-10323" to="-38093"/>
    <trip id="285" depart="273.00" from="-9255" to="-35992"/>
    <trip id="286" depart="273.00" from="-40272" to="-55766"/>
    <trip id="287" depart="275.00" from="-32158" to="10696"/>
    <trip id="288" depart="275.00" from="10036" to="37413"/>
    <trip id="289" depart="276.00" from="28564" to="-15914"/>
    <trip id="290" depart="276.00" from="1211" to="-52868"/>
    <trip id="291" depart="277.00" from="3939" to="57931"/>
    <trip id="292" depart="277.00" from="5202" to="-45640"/>
    <trip id="293" depart="277.00" from="-29540" to="-39779"/>
    <trip id="294" depart="279.00" from="9243" to="-9518"/>
    <trip id="295" depart="282.00" from="14566" to="21991"/>
    <trip id="296" depart="283.00" from="-12984" to="11261"/>
    <trip id="297" depart="284.00" from="9193" to="54365"/>
    <trip id="298" depart="285.00" from="-11505" to="-61240"/>
    <trip id="299" depart="286.00" from="35514" to="-23612"/>
    <trip id="300" depart="289.00" from="11910" to="-31210"/>
    <trip id="301" depart="291.00" from="-4493" to="46796"/>
    <trip id="302" depart="291.00" from="46015" to="13225"/>
    <trip id="303" depart="291.00" from="5337" to="-29229"/>
    <trip id="304" depart="292.00" from="-1148" to="-47013"/>
    <trip id="305" depart="294.00" from="-5341" to="38604"/>
    <trip id="306" depart="294.00" from="-19675" to="-25823"/>
    <trip id="307" depart="296.00" from="-12262" to="-6010"/>
    <trip id="308" depart="296.00" from="66885" to="-56636"/>
    <trip id="309" depart="298.00" from="-22618" to="-51101"/>
    <trip id="310" depart="298.00" from="66766" to="-62217"/>
    <trip id="311" depart="299.00" from="3505" to="31713"/>
    <trip id="312" depart="299.00" from="55577" to="-36010"/>
    <trip id="313" depart="300.00" from="60125" to="12300"/>
    <trip id="314" depart="301.00" from="33395" to="-52791"/>
    <trip id="315" depart="301.00" from="-38449" to="-64724"/>
    <trip id="316" depart="303.00" from="8936" to="40303"/>
    <trip id="317" depart="304.00" from="27101" to="-38063"/>
    <trip id="318" depart="304.00" from="-37240" to="12970"/>
    <trip id="319" depart="305.00" from="56054" to="-51918"/>
    <trip id="320" depart="306.00" from="-14566" to="844"/>
    <trip id="321" depart="306.00" from="56245" to="-54539"/>
    <trip id="322" depart="306.00" from="-65687" to="-18937"/>
    <trip id="323" depart="307.00" from="46517" to="5985"/>
    <trip id="324" depart="308.00" from="-40969" to="-30703"/>
    <trip id="325" depart="310.00" from="5188" to="46338"/>
    <trip id="326" depart="311.00" from="48993" to="-1960"/>
    <trip id="327" depart="312.00" from="-19565" to="48591"/>
    <trip id="328" depart="313.00" from="-67990" to="-10685"/>
    <trip id="329" depart="316.00" from="7759" to="39528"/>
    <trip id="330" depart="318.00" from="164" to="56261"/>
    <trip id="331" depart="320.00" from="-24620" to="5583"/>
    <trip id="332" depart="321.00" from="-16747" to="-26526"/>
    <trip id="333" depart="321.00" from="20050" to="64064"/>
    <trip id="334" depart="322.00" from="12970" to="37413"/>
    <trip id="335" depart="322.00" from="54774" to="61287"/>
    <trip id="336" depart="323.00" from="34217" to="65681"/>
    <trip id="337" depart="325.00" from="25444" to="63276"/>
    <trip id="338" depart="326.00" from="61087" to="-3366"/>
    <trip id="339" depart="327.00" from="-4279" to="-40418"/>
    <trip id="340" depart="328.00" from="-27210" to="6901"/>
    <trip id="341" depart="328.00" from="67013" to="25770"/>
    <trip id="342" depart="330.00" from="-26407" to="20210"/>
    <trip id="343" depart="330.00" from="14544" to="-19277"/>
    <trip id="344" depart="330.00" from="-10670" to="-21936"/>
    <trip id="345" depart="331.00" from="-47013" to="-51015"/>
    <trip id="346" depart="331.00" from="-8579" to="-28582"/>
    <trip id="347" depart="332.00" from="32151" to="-53597"/>
    <trip id="348" depart="333.00" from="-56670" to="-27616"/>
    <trip id="349" depart="333.00" from="-65863" to="47628"/>
    <trip id="350" depart="335.00" from="-43294" to="53601"/>
    <trip id="351" depart="339.00" from="-7274" to="-34100"/>
    <trip id="352" depart="340.00" from="50510" to="5479"/>
    <trip id="353" depart="341.00" from="-25047" to="60139"/>
    <trip id="354" depart="342.00" from="23981" to="20193"/>
    <trip id="355" depart="342.00" from="63651" to="9265"/>
    <trip id="356" depart="343.00" from="-56079" to="-57105"/>
    <trip id="357" depart="344.00" from="20598" to="-3366"/>
    <trip id="358" depart="345.00" from="56290" to="-52986"/>
    <trip id="359" depart="345.00" from="8579" to="20197"/>
    <trip id="360" depart="346.00" from="-46284" to="-62831"/>
    <trip id="361" depart="346.00" from="-6043" to="-12262"/>
    <trip id="362" depart="348.00" from="-33031" to="-41261"/>
    <trip id="363" depart="348.00" from="-24486" to="-59033"/>
    <trip id="364" depart="350.00" from="37535" to="-43126"/>
    <trip id="365" depart="351.00" from="23619" to="-8968"/>
    <trip id="366" depart="351.00" from="-37309" to="25799"/>
    <trip id="367" depart="352.00" from="6637" to="-27214"/>
    <trip id="368" depart="353.00" from="-41826" to="33377"/>
    <trip id="369" depart="353.00" from="-11796" to="54388"/>
    <trip id="370" depart="357.00" from="-41328" to="64209"/>
    <trip id="371" depart="357.00" from="33031" to="21663"/>
    <trip id="372" depart="359.00" from="26809" to="43307"/>
    <trip id="373" depart="359.00" from="6650" to="9892"/>
    <trip id="374" depart="359.00" from="5833" to="18317"/>
    <trip id="375" depart="360.00" from="59055" to="-10308"/>
    <trip id="376" depart="362.00" from="5602" to="33089"/>
    <trip id="377" depart="365.00" from="44404" to="-43813"/>
    <trip id="378" depart="365.00" from="26917" to="-43287"/>
    <trip id="379" depart="365.00" from="-5813" to="16327"/>
    <trip id="380" depart="366.00" from="29959" to="-37368"/>
    <trip id="381" depart="367.00" from="-29959" to="28549"/>
    <trip id="382" depart="369.00" from="-592" to="22278"/>
    <trip id="383" depart="369.00" from="-23590" to="8179"/>
    <trip id="384" depart="370.00" from="-13668" to="-49125"/>
    <trip id="385" depart="371.00" from="30174" to="5188"/>
    <trip id="386" depart="374.00" from="63899" to="-991"/>
    <trip id="387" depart="375.00" from="-15617" to="-1469"/>
    <trip id="388" depart="377.00" from="58360" to="-51032"/>
    <trip id="389" depart="379.00" from="6333" to="35502"/>
    <trip id="390" depart="381.00" from="7567" to="2937"/>
    <trip id="391" depart="381.00" from="-63768" to="-8771"/>
    <trip id="392" depart="383.00" from="-56644" to="16174"/>
    <trip id="393" depart="383.00" from="63395" to="-15559"/>
    <trip id="394" depart="384.00" from="-26759" to="50506"/>
    <trip id="395" depart="384.00" from="41996" to="-3936"/>
    <trip id="396" depart="385.00" from="13533" to="54148"/>
    <trip id="397" depart="387.00" from="-57945" to="-1610"/>
    <trip id="398" depart="387.00" from="1962" to="-63292"/>
    <trip id="399" depart="390.00" from="-2343" to="-23913"/>
    <trip id="400" depart="390.00" from="57922" to="58"/>
    <trip id="401" depart="391.00" from="1739" to="63417"/>
    <trip id="402" depart="391.00" from="-19284" to="8800"/>
    <trip id="403" depart="392.00" from="-7753" to="14837"/>
    <trip id="404" depart="393.00" from="56225" to="-8522"/>
    <trip id="405" depart="394.00" from="-2343" to="27616"/>
    <trip id="406" depart="394.00" from="-32445" to="-3671"/>
    <trip id="407" depart="395.00" from="-13478" to="4747"/>
    <trip id="408" depart="396.00" from="-20982" to="2220"/>
    <trip id="409" depart="397.00" from="-16609" to="32908"/>
    <trip id="410" depart="397.00" from="-51039" to="-20752"/>
    <trip id="411" depart="398.00" from="-55302" to="-53261"/>
    <trip id="412" depart="399.00" from="50862" to="65000"/>
    <trip id="413" depart="401.00" from="29198" to="-31436"/>
    <trip id="414" depart="402.00" from="1209" to="-15220"/>
    <trip id="415" depart="402.00" from="-5055" to="28158"/>
    <trip id="416" depart="402.00" from="5745" to="14486"/>
    <trip id="417" depart="403.00" from="-44374" to="-21936"/>
    <trip id="418" depart="404.00" from="-52617" to="53606"/>
    <trip id="419" depart="404.00" from="-37305" to="37315"/>
    <trip id="420" depart="404.00" from="35872" to="-48230"/>
    <trip id="421" depart="404.00" from="-8520" to="37556"/>
    <trip id="422" depart="405.00" from="-50746" to="-16899"/>
    <trip id="423" depart="407.00" from="-63768" to="-2930"/>
    <trip id="424" depart="407.00" from="34277" to="-54726"/>
    <trip id="425" depart="407.00" from="-12736" to="31017"/>
    <trip id="426" depart="410.00" from="-17886" to="-16757"/>
    <trip id="427" depart="411.00" from="3671" to="-1934"/>
    <trip id="428" depart="412.00" from="-46787" to="-35520"/>
    <trip id="429" depart="412.00" from="-26522" to="66044"/>
    <trip id="430" depart="412.00" from="-5725" to="-60776"/>
    <trip id="431" depart="415.00" from="18965" to="3205"/>
    <trip id="432" depart="415.00" from="-31556" to="45860"/>
    <trip id="433" depart="415.00" from="-49004" to="-33031"/>
    <trip id="434" depart="417.00" from="-5059" to="28580"/>
    <trip id="435" depart="417.00" from="7119" to="-52905"/>
    <trip id="436" depart="418.00" from="19273" to="-50871"/>
    <trip id="437" depart="420.00" from="24898" to="68101"/>
    <trip id="438" depart="420.00" from="-54388" to="15108"/>
    <trip id="439" depart="420.00" from="22287" to="38996"/>
    <trip id="440" depart="420.00" from="28042" to="-11441"/>
    <trip id="441" depart="421.00" from="-65874" to="22279"/>
    <trip id="442" depart="423.00" from="-29353" to="49122"/>
    <trip id="443" depart="424.00" from="-56723" to="26526"/>
    <trip id="444" depart="426.00" from="30439" to="-24761"/>
    <trip id="445" depart="426.00" from="-37568" to="-13048"/>
    <trip id="446" depart="426.00" from="33633" to="-54368"/>
    <trip id="447" depart="427.00" from="-2169" to="-16624"/>
    <trip id="448" depart="427.00" from="29587" to="-12937"/>
    <trip id="449" depart="429.00" from="41872" to="-32151"/>
    <trip id="450" depart="433.00" from="26797" to="44261"/>
    <trip id="451" depart="434.00" from="18383" to="-13670"/>
    <trip id="452" depart="435.00" from="-9903" to="43842"/>
    <trip id="453" depart="435.00" from="67036" to="13181"/>
    <trip id="454" depart="435.00" from="3507" to="-43945"/>
    <trip id="455" depart="436.00" from="-17545" to="3590"/>
    <trip id="456" depart="439.00" from="35546" to="-14853"/>
    <trip id="457" depart="443.00" from="-57949" to="43811"/>
    <trip id="458" depart="443.00" from="36643" to="-52617"/>
    <trip id="459" depart="443.00" from="-26742" to="3929"/>
    <trip id="460" depart="445.00" from="20191" to="61121"/>
    <trip id="461" depart="445.00" from="-56695" to="-21667"/>
    <trip id="462" depart="446.00" from="-13176" to="35218"/>
    <trip id="463" depart="448.00" from="60738" to="8512"/>
    <trip id="464" depart="450.00" from="54779" to="-62222"/>
    <trip id="465" depart="450.00" from="64330" to="-58127"/>
    <trip id="466" depart="450.00" from="30692" to="-17761"/>
    <trip id="467" depart="451.00" from="48935" to="-65000"/>
    <trip id="468" depart="452.00" from="15236" to="-19879"/>
    <trip id="469" depart="453.00" from="49727" to="2918"/>
    <trip id="470" depart="454.00" from="-50863" to="15"/>
    <trip id="471" depart="457.00" from="-51882" to="31218"/>
    <trip id="472" depart="458.00" from="-25742" to="46147"/>
    <trip id="473" depart="458.00" from="30030" to="-16483"/>
    <trip id="474" depart="458.00" from="-20210" to="14566"/>
    <trip id="475" depart="458.00" from="-1741" to="-12511"/>
    <trip id="476" depart="458.00" from="-25818" to="-25424"/>
    <trip id="477" depart="459.00" from="-55784" to="-7753"/>
    <trip id="478" depart="459.00" from="55580" to="-45333"/>
    <trip id="479" depart="459.00" from="-12095" to="-20008"/>
    <trip id="480" depart="461.00" from="43294" to="-36621"/>
    <trip id="481" depart="461.00" from="5981" to="56670"/>
    <trip id="482" depart="462.00" from="-45" to="21804"/>