<?xml version="1.0" encoding="UTF-8"?>
<configuration>
  <input>
    <net-file value="randomgrid.net.xml"/>
    <route-files value="binomial100.trips.xml"/>
  </input>
  <time>
    <begin value="0"/>
    <end value="2510"/>
  </time>
  <processing>
    <collision.check-junctions value="true" />
  </processing>
</configuration>
