<?xml version="1.0" encoding="UTF-8"?>

<!-- generated on 2022-12-31 00:35:42.287741 by generateContinuousRerouters.py UNKNOWN
  options: -n randomgrid.net.xml -o randomgrid.rou.xml
-->

<additional xmlns:xsi="http://www.w3.org/2001/XMLSchema-instance" xsi:noNamespaceSchemaLocation="http://sumo.dlr.de/xsd/additional_file.xsd">
    <route id="-1026_-1000" edges="-1026 -1000"/>
    <route id="-1026_1026" edges="-1026 1026"/>
    <route id="-1026_1034" edges="-1026 1034"/>
    <rerouter id="rr_-1026" edges="-1026">
        <interval begin="0" end="3600">
            <routeProbReroute id="-1026_-1000" probability="20.0"/>
            <routeProbReroute id="-1026_1026" probability="0"/>
            <routeProbReroute id="-1026_1034" probability="30.0"/>
        </interval>
    </rerouter>
    <route id="-1034_-1000" edges="-1034 -1000"/>
    <route id="-1034_1026" edges="-1034 1026"/>
    <route id="-1034_1034" edges="-1034 1034"/>
    <rerouter id="rr_-1034" edges="-1034">
        <interval begin="0" end="3600">
            <routeProbReroute id="-1034_-1000" probability="50.0"/>
            <routeProbReroute id="-1034_1026" probability="20.0"/>
            <routeProbReroute id="-1034_1034" probability="0"/>
        </interval>
    </rerouter>
    <route id="1000_-1000" edges="1000 -1000"/>
    <route id="1000_1026" edges="1000 1026"/>
    <route id="1000_1034" edges="1000 1034"/>
    <rerouter id="rr_1000" edges="1000">
        <interval begin="0" end="3600">
            <routeProbReroute id="1000_-1000" probability="0"/>
            <routeProbReroute id="1000_1026" probability="30.0"/>
            <routeProbReroute id="1000_1034" probability="50.0"/>
        </interval>
    </rerouter>
    <route id="-1000_-854" edges="-1000 -854"/>
    <route id="-1000_1000" edges="-1000 1000"/>
    <route id="-1000_1002" edges="-1000 1002"/>
    <route id="-1000_1004" edges="-1000 1004"/>
    <rerouter id="rr_-1000" edges="-1000">
        <interval begin="0" end="3600">
            <routeProbReroute id="-1000_-854" probability="30.0"/>
            <routeProbReroute id="-1000_1000" probability="0"/>
            <routeProbReroute id="-1000_1002" probability="50.0"/>
            <routeProbReroute id="-1000_1004" probability="20.0"/>
        </interval>
    </rerouter>
    <route id="-1002_-854" edges="-1002 -854"/>
    <route id="-1002_1000" edges="-1002 1000"/>
    <route id="-1002_1002" edges="-1002 1002"/>
    <route id="-1002_1004" edges="-1002 1004"/>
    <rerouter id="rr_-1002" edges="-1002">
        <interval begin="0" end="3600">
            <routeProbReroute id="-1002_-854" probability="20.0"/>
            <routeProbReroute id="-1002_1000" probability="50.0"/>
            <routeProbReroute id="-1002_1002" probability="0"/>
            <routeProbReroute id="-1002_1004" probability="30.0"/>
        </interval>
    </rerouter>
    <route id="-1004_-854" edges="-1004 -854"/>
    <route id="-1004_1000" edges="-1004 1000"/>
    <route id="-1004_1002" edges="-1004 1002"/>
    <route id="-1004_1004" edges="-1004 1004"/>
    <rerouter id="rr_-1004" edges="-1004">
        <interval begin="0" end="3600">
            <routeProbReroute id="-1004_-854" probability="50.0"/>
            <routeProbReroute id="-1004_1000" probability="30.0"/>
            <routeProbReroute id="-1004_1002" probability="20.0"/>
            <routeProbReroute id="-1004_1004" probability="0"/>
        </interval>
    </rerouter>
    <route id="854_-854" edges="854 -854"/>
    <route id="854_1000" edges="854 1000"/>
    <route id="854_1002" edges="854 1002"/>
    <route id="854_1004" edges="854 1004"/>
    <rerouter id="rr_854" edges="854">
        <interval begin="0" end="3600">
            <routeProbReroute id="854_-854" probability="0"/>
            <routeProbReroute id="854_1000" probability="20.0"/>
            <routeProbReroute id="854_1002" probability="30.0"/>
            <routeProbReroute id="854_1004" probability="50.0"/>
        </interval>
    </rerouter>
    <route id="-3587_-1002" edges="-3587 -1002"/>
    <route id="-3587_-1194" edges="-3587 -1194"/>
    <route id="-3587_-1470" edges="-3587 -1470"/>
    <route id="-3587_3587" edges="-3587 3587"/>
    <rerouter id="rr_-3587" edges="-3587">
        <interval begin="0" end="3600">
            <routeProbReroute id="-3587_-1002" probability="50.0"/>
            <routeProbReroute id="-3587_-1194" probability="20.0"/>
            <routeProbReroute id="-3587_-1470" probability="20.0"/>
            <routeProbReroute id="-3587_3587" probability="0"/>
        </interval>
    </rerouter>
    <route id="1002_-1002" edges="1002 -1002"/>
    <route id="1002_-1194" edges="1002 -1194"/>
    <route id="1002_-1470" edges="1002 -1470"/>
    <route id="1002_3587" edges="1002 3587"/>
    <rerouter id="rr_1002" edges="1002">
        <interval begin="0" end="3600">
            <routeProbReroute id="1002_-1002" probability="0"/>
            <routeProbReroute id="1002_-1194" probability="30.0"/>
            <routeProbReroute id="1002_-1470" probability="30.0"/>
            <routeProbReroute id="1002_3587" probability="50.0"/>
        </interval>
    </rerouter>
    <route id="1194_-1002" edges="1194 -1002"/>
    <route id="1194_-1194" edges="1194 -1194"/>
    <route id="1194_-1470" edges="1194 -1470"/>
    <route id="1194_3587" edges="1194 3587"/>
    <rerouter id="rr_1194" edges="1194">
        <interval begin="0" end="3600">
            <routeProbReroute id="1194_-1002" probability="20.0"/>
            <routeProbReroute id="1194_-1194" probability="0"/>
            <routeProbReroute id="1194_-1470" probability="30.0"/>
            <routeProbReroute id="1194_3587" probability="30.0"/>
        </interval>
    </rerouter>
    <route id="1470_-1002" edges="1470 -1002"/>
    <route id="1470_-1194" edges="1470 -1194"/>
    <route id="1470_-1470" edges="1470 -1470"/>
    <route id="1470_3587" edges="1470 3587"/>
    <rerouter id="rr_1470" edges="1470">
        <interval begin="0" end="3600">
            <routeProbReroute id="1470_-1002" probability="20.0"/>
            <routeProbReroute id="1470_-1194" probability="20.0"/>
            <routeProbReroute id="1470_-1470" probability="0"/>
            <routeProbReroute id="1470_3587" probability="30.0"/>
        </interval>
    </rerouter>
    <route id="-1604_-10035" edges="-1604 -10035"/>
    <route id="-1604_-1257" edges="-1604 -1257"/>
    <route id="-1604_1604" edges="-1604 1604"/>
    <route id="-1604_1962" edges="-1604 1962"/>
    <rerouter id="rr_-1604" edges="-1604">
        <interval begin="0" end="3600">
            <routeProbReroute id="-1604_-10035" probability="50.0"/>
            <routeProbReroute id="-1604_-1257" probability="30.0"/>
            <routeProbReroute id="-1604_1604" probability="0"/>
            <routeProbReroute id="-1604_1962" probability="20.0"/>
        </interval>
    </rerouter>
    <route id="-1962_-10035" edges="-1962 -10035"/>
    <route id="-1962_-1257" edges="-1962 -1257"/>
    <route id="-1962_1604" edges="-1962 1604"/>
    <route id="-1962_1962" edges="-1962 1962"/>
    <rerouter id="rr_-1962" edges="-1962">
        <interval begin="0" end="3600">
            <routeProbReroute id="-1962_-10035" probability="20.0"/>
            <routeProbReroute id="-1962_-1257" probability="50.0"/>
            <routeProbReroute id="-1962_1604" probability="30.0"/>
            <routeProbReroute id="-1962_1962" probability="0"/>
        </interval>
    </rerouter>
    <route id="10035_-10035" edges="10035 -10035"/>
    <route id="10035_-1257" edges="10035 -1257"/>
    <route id="10035_1604" edges="10035 1604"/>
    <route id="10035_1962" edges="10035 1962"/>
    <rerouter id="rr_10035" edges="10035">
        <interval begin="0" end="3600">
            <routeProbReroute id="10035_-10035" probability="0"/>
            <routeProbReroute id="10035_-1257" probability="20.0"/>
            <routeProbReroute id="10035_1604" probability="50.0"/>
            <routeProbReroute id="10035_1962" probability="30.0"/>
        </interval>
    </rerouter>
    <route id="1257_-10035" edges="1257 -10035"/>
    <route id="1257_-1257" edges="1257 -1257"/>
    <route id="1257_1604" edges="1257 1604"/>
    <route id="1257_1962" edges="1257 1962"/>
    <rerouter id="rr_1257" edges="1257">
        <interval begin="0" end="3600">
            <routeProbReroute id="1257_-10035" probability="30.0"/>
            <routeProbReroute id="1257_-1257" probability="0"/>
            <routeProbReroute id="1257_1604" probability="20.0"/>
            <routeProbReroute id="1257_1962" probability="50.0"/>
        </interval>
    </rerouter>
    <route id="-10035_-9495" edges="-10035 -9495"/>
    <route id="-10035_10035" edges="-10035 10035"/>
    <route id="-10035_10036" edges="-10035 10036"/>
    <route id="-10035_10037" edges="-10035 10037"/>
    <rerouter id="rr_-10035" edges="-10035">
        <interval begin="0" end="3600">
            <routeProbReroute id="-10035_-9495" probability="20.0"/>
            <routeProbReroute id="-10035_10035" probability="0"/>
            <routeProbReroute id="-10035_10036" probability="30.0"/>
            <routeProbReroute id="-10035_10037" probability="30.0"/>
        </interval>
    </rerouter>
    <route id="-10036_-9495" edges="-10036 -9495"/>
    <route id="-10036_10035" edges="-10036 10035"/>
    <route id="-10036_10036" edges="-10036 10036"/>
    <route id="-10036_10037" edges="-10036 10037"/>
    <rerouter id="rr_-10036" edges="-10036">
        <interval begin="0" end="3600">
            <routeProbReroute id="-10036_-9495" probability="50.0"/>
            <routeProbReroute id="-10036_10035" probability="20.0"/>
            <routeProbReroute id="-10036_10036" probability="0"/>
            <routeProbReroute id="-10036_10037" probability="30.0"/>
        </interval>
    </rerouter>
    <route id="-10037_-9495" edges="-10037 -9495"/>
    <route id="-10037_10035" edges="-10037 10035"/>
    <route id="-10037_10036" edges="-10037 10036"/>
    <route id="-10037_10037" edges="-10037 10037"/>
    <rerouter id="rr_-10037" edges="-10037">
        <interval begin="0" end="3600">
            <routeProbReroute id="-10037_-9495" probability="30.0"/>
            <routeProbReroute id="-10037_10035" probability="20.0"/>
            <routeProbReroute id="-10037_10036" probability="20.0"/>
            <routeProbReroute id="-10037_10037" probability="0"/>
        </interval>
    </rerouter>
    <route id="9495_-9495" edges="9495 -9495"/>
    <route id="9495_10035" edges="9495 10035"/>
    <route id="9495_10036" edges="9495 10036"/>
    <route id="9495_10037" edges="9495 10037"/>
    <rerouter id="rr_9495" edges="9495">
        <interval begin="0" end="3600">
            <routeProbReroute id="9495_-9495" probability="0"/>
            <routeProbReroute id="9495_10035" probability="30.0"/>
            <routeProbReroute id="9495_10036" probability="50.0"/>
            <routeProbReroute id="9495_10037" probability="20.0"/>
        </interval>
    </rerouter>
    <route id="-4319_-10036" edges="-4319 -10036"/>
    <route id="-4319_-1249" edges="-4319 -1249"/>
    <route id="-4319_-340" edges="-4319 -340"/>
    <route id="-4319_4319" edges="-4319 4319"/>
    <rerouter id="rr_-4319" edges="-4319">
        <interval begin="0" end="3600">
            <routeProbReroute id="-4319_-10036" probability="30.0"/>
            <routeProbReroute id="-4319_-1249" probability="50.0"/>
            <routeProbReroute id="-4319_-340" probability="20.0"/>
            <routeProbReroute id="-4319_4319" probability="0"/>
        </interval>
    </rerouter>
    <route id="10036_-10036" edges="10036 -10036"/>
    <route id="10036_-1249" edges="10036 -1249"/>
    <route id="10036_-340" edges="10036 -340"/>
    <route id="10036_4319" edges="10036 4319"/>
    <rerouter id="rr_10036" edges="10036">
        <interval begin="0" end="3600">
            <routeProbReroute id="10036_-10036" probability="0"/>
            <routeProbReroute id="10036_-1249" probability="30.0"/>
            <routeProbReroute id="10036_-340" probability="50.0"/>
            <routeProbReroute id="10036_4319" probability="20.0"/>
        </interval>
    </rerouter>
    <route id="1249_-10036" edges="1249 -10036"/>
    <route id="1249_-1249" edges="1249 -1249"/>
    <route id="1249_-340" edges="1249 -340"/>
    <route id="1249_4319" edges="1249 4319"/>
    <rerouter id="rr_1249" edges="1249">
        <interval begin="0" end="3600">
            <routeProbReroute id="1249_-10036" probability="20.0"/>
            <routeProbReroute id="1249_-1249" probability="0"/>
            <routeProbReroute id="1249_-340" probability="30.0"/>
            <routeProbReroute id="1249_4319" probability="50.0"/>
        </interval>
    </rerouter>
    <route id="340_-10036" edges="340 -10036"/>
    <route id="340_-1249" edges="340 -1249"/>
    <route id="340_-340" edges="340 -340"/>
    <route id="340_4319" edges="340 4319"/>
    <rerouter id="rr_340" edges="340">
        <interval begin="0" end="3600">
            <routeProbReroute id="340_-10036" probability="50.0"/>
            <routeProbReroute id="340_-1249" probability="20.0"/>
            <routeProbReroute id="340_-340" probability="0"/>
            <routeProbReroute id="340_4319" probability="30.0"/>
        </interval>
    </rerouter>
    <route id="-14352_-10037" edges="-14352 -10037"/>
    <route id="-14352_-4741" edges="-14352 -4741"/>
    <route id="-14352_14352" edges="-14352 14352"/>
    <route id="-14352_14353" edges="-14352 14353"/>
    <rerouter id="rr_-14352" edges="-14352">
        <interval begin="0" end="3600">
            <routeProbReroute id="-14352_-10037" probability="30.0"/>
            <routeProbReroute id="-14352_-4741" probability="20.0"/>
            <routeProbReroute id="-14352_14352" probability="0"/>
            <routeProbReroute id="-14352_14353" probability="20.0"/>
        </interval>
    </rerouter>
    <route id="-14353_-10037" edges="-14353 -10037"/>
    <route id="-14353_-4741" edges="-14353 -4741"/>
    <route id="-14353_14352" edges="-14353 14352"/>
    <route id="-14353_14353" edges="-14353 14353"/>
    <rerouter id="rr_-14353" edges="-14353">
        <interval begin="0" end="3600">
            <routeProbReroute id="-14353_-10037" probability="20.0"/>
            <routeProbReroute id="-14353_-4741" probability="30.0"/>
            <routeProbReroute id="-14353_14352" probability="30.0"/>
            <routeProbReroute id="-14353_14353" probability="0"/>
        </interval>
    </rerouter>
    <route id="10037_-10037" edges="10037 -10037"/>
    <route id="10037_-4741" edges="10037 -4741"/>
    <route id="10037_14352" edges="10037 14352"/>
    <route id="10037_14353" edges="10037 14353"/>
    <rerouter id="rr_10037" edges="10037">
        <interval begin="0" end="3600">
            <routeProbReroute id="10037_-10037" probability="0"/>
            <routeProbReroute id="10037_-4741" probability="50.0"/>
            <routeProbReroute id="10037_14352" probability="20.0"/>
            <routeProbReroute id="10037_14353" probability="30.0"/>
        </interval>
    </rerouter>
    <route id="4741_-10037" edges="4741 -10037"/>
    <route id="4741_-4741" edges="4741 -4741"/>
    <route id="4741_14352" edges="4741 14352"/>
    <route id="4741_14353" edges="4741 14353"/>
    <rerouter id="rr_4741" edges="4741">
        <interval begin="0" end="3600">
            <routeProbReroute id="4741_-10037" probability="50.0"/>
            <routeProbReroute id="4741_-4741" probability="0"/>
            <routeProbReroute id="4741_14352" probability="30.0"/>
            <routeProbReroute id="4741_14353" probability="20.0"/>
        </interval>
    </rerouter>
    <route id="-10646_-10039" edges="-10646 -10039"/>
    <route id="-10646_-10041" edges="-10646 -10041"/>
    <route id="-10646_10646" edges="-10646 10646"/>
    <route id="-10646_10668" edges="-10646 10668"/>
    <rerouter id="rr_-10646" edges="-10646">
        <interval begin="0" end="3600">
            <routeProbReroute id="-10646_-10039" probability="20.0"/>
            <routeProbReroute id="-10646_-10041" probability="30.0"/>
            <routeProbReroute id="-10646_10646" probability="0"/>
            <routeProbReroute id="-10646_10668" probability="30.0"/>
        </interval>
    </rerouter>
    <route id="-10668_-10039" edges="-10668 -10039"/>
    <route id="-10668_-10041" edges="-10668 -10041"/>
    <route id="-10668_10646" edges="-10668 10646"/>
    <route id="-10668_10668" edges="-10668 10668"/>
    <rerouter id="rr_-10668" edges="-10668">
        <interval begin="0" end="3600">
            <routeProbReroute id="-10668_-10039" probability="50.0"/>
            <routeProbReroute id="-10668_-10041" probability="30.0"/>
            <routeProbReroute id="-10668_10646" probability="20.0"/>
            <routeProbReroute id="-10668_10668" probability="0"/>
        </interval>
    </rerouter>
    <route id="10039_-10039" edges="10039 -10039"/>
    <route id="10039_-10041" edges="10039 -10041"/>
    <route id="10039_10646" edges="10039 10646"/>
    <route id="10039_10668" edges="10039 10668"/>
    <rerouter id="rr_10039" edges="10039">
        <interval begin="0" end="3600">
            <routeProbReroute id="10039_-10039" probability="0"/>
            <routeProbReroute id="10039_-10041" probability="20.0"/>
            <routeProbReroute id="10039_10646" probability="30.0"/>
            <routeProbReroute id="10039_10668" probability="50.0"/>
        </interval>
    </rerouter>
    <route id="10041_-10039" edges="10041 -10039"/>
    <route id="10041_-10041" edges="10041 -10041"/>
    <route id="10041_10646" edges="10041 10646"/>
    <route id="10041_10668" edges="10041 10668"/>
    <rerouter id="rr_10041" edges="10041">
        <interval begin="0" end="3600">
            <routeProbReroute id="10041_-10039" probability="30.0"/>
            <routeProbReroute id="10041_-10041" probability="0"/>
            <routeProbReroute id="10041_10646" probability="20.0"/>
            <routeProbReroute id="10041_10668" probability="20.0"/>
        </interval>
    </rerouter>
    <route id="-10039_-5538" edges="-10039 -5538"/>
    <route id="-10039_10039" edges="-10039 10039"/>
    <route id="-10039_15455" edges="-10039 15455 -15621 -14355"/>
    <rerouter id="rr_-10039" edges="-10039">
        <interval begin="0" end="3600">
            <routeProbReroute id="-10039_-5538" probability="30.0"/>
            <routeProbReroute id="-10039_10039" probability="0"/>
            <routeProbReroute id="-10039_15455" probability="20.0"/>
        </interval>
    </rerouter>
    <route id="-15455_-5538" edges="-15455 -5538"/>
    <route id="-15455_10039" edges="-15455 10039"/>
    <route id="-15455_15455" edges="-15455 15455 -15621 -14355"/>
    <rerouter id="rr_-15455" edges="-15455">
        <interval begin="0" end="3600">
            <routeProbReroute id="-15455_-5538" probability="50.0"/>
            <routeProbReroute id="-15455_10039" probability="30.0"/>
            <routeProbReroute id="-15455_15455" probability="0"/>
        </interval>
    </rerouter>
    <route id="5538_-5538" edges="5538 -5538"/>
    <route id="5538_10039" edges="5538 10039"/>
    <route id="5538_15455" edges="5538 15455 -15621 -14355"/>
    <rerouter id="rr_5538" edges="5538">
        <interval begin="0" end="3600">
            <routeProbReroute id="5538_-5538" probability="0"/>
            <routeProbReroute id="5538_10039" probability="20.0"/>
            <routeProbReroute id="5538_15455" probability="50.0"/>
        </interval>
    </rerouter>
    <route id="-3930_-1004" edges="-3930 -1004"/>
    <route id="-3930_-1026" edges="-3930 -1026"/>
    <route id="-3930_3930" edges="-3930 3930"/>
    <route id="-3930_5188" edges="-3930 5188"/>
    <rerouter id="rr_-3930" edges="-3930">
        <interval begin="0" end="3600">
            <routeProbReroute id="-3930_-1004" probability="30.0"/>
            <routeProbReroute id="-3930_-1026" probability="30.0"/>
            <routeProbReroute id="-3930_3930" probability="0"/>
            <routeProbReroute id="-3930_5188" probability="50.0"/>
        </interval>
    </rerouter>
    <route id="-5188_-1004" edges="-5188 -1004"/>
    <route id="-5188_-1026" edges="-5188 -1026"/>
    <route id="-5188_3930" edges="-5188 3930"/>
    <route id="-5188_5188" edges="-5188 5188"/>
    <rerouter id="rr_-5188" edges="-5188">
        <interval begin="0" end="3600">
            <routeProbReroute id="-5188_-1004" probability="20.0"/>
            <routeProbReroute id="-5188_-1026" probability="20.0"/>
            <routeProbReroute id="-5188_3930" probability="50.0"/>
            <routeProbReroute id="-5188_5188" probability="0"/>
        </interval>
    </rerouter>
    <route id="1004_-1004" edges="1004 -1004"/>
    <route id="1004_-1026" edges="1004 -1026"/>
    <route id="1004_3930" edges="1004 3930"/>
    <route id="1004_5188" edges="1004 5188"/>
    <rerouter id="rr_1004" edges="1004">
        <interval begin="0" end="3600">
            <routeProbReroute id="1004_-1004" probability="0"/>
            <routeProbReroute id="1004_-1026" probability="20.0"/>
            <routeProbReroute id="1004_3930" probability="20.0"/>
            <routeProbReroute id="1004_5188" probability="30.0"/>
        </interval>
    </rerouter>
    <route id="1026_-1004" edges="1026 -1004"/>
    <route id="1026_-1026" edges="1026 -1026"/>
    <route id="1026_3930" edges="1026 3930"/>
    <route id="1026_5188" edges="1026 5188"/>
    <rerouter id="rr_1026" edges="1026">
        <interval begin="0" end="3600">
            <routeProbReroute id="1026_-1004" probability="30.0"/>
            <routeProbReroute id="1026_-1026" probability="0"/>
            <routeProbReroute id="1026_3930" probability="20.0"/>
            <routeProbReroute id="1026_5188" probability="30.0"/>
        </interval>
    </rerouter>
    <route id="-10041_-7031" edges="-10041 -7031"/>
    <route id="-10041_-7259" edges="-10041 -7259"/>
    <route id="-10041_10041" edges="-10041 10041"/>
    <route id="-10041_10670" edges="-10041 10670"/>
    <rerouter id="rr_-10041" edges="-10041">
        <interval begin="0" end="3600">
            <routeProbReroute id="-10041_-7031" probability="20.0"/>
            <routeProbReroute id="-10041_-7259" probability="20.0"/>
            <routeProbReroute id="-10041_10041" probability="0"/>
            <routeProbReroute id="-10041_10670" probability="30.0"/>
        </interval>
    </rerouter>
    <route id="-10670_-7031" edges="-10670 -7031"/>
    <route id="-10670_-7259" edges="-10670 -7259"/>
    <route id="-10670_10041" edges="-10670 10041"/>
    <route id="-10670_10670" edges="-10670 10670"/>
    <rerouter id="rr_-10670" edges="-10670">
        <interval begin="0" end="3600">
            <routeProbReroute id="-10670_-7031" probability="20.0"/>
            <routeProbReroute id="-10670_-7259" probability="50.0"/>
            <routeProbReroute id="-10670_10041" probability="20.0"/>
            <routeProbReroute id="-10670_10670" probability="0"/>
        </interval>
    </rerouter>
    <route id="7031_-7031" edges="7031 -7031"/>
    <route id="7031_-7259" edges="7031 -7259"/>
    <route id="7031_10041" edges="7031 10041"/>
    <route id="7031_10670" edges="7031 10670"/>
    <rerouter id="rr_7031" edges="7031">
        <interval begin="0" end="3600">
            <routeProbReroute id="7031_-7031" probability="0"/>
            <routeProbReroute id="7031_-7259" probability="20.0"/>
            <routeProbReroute id="7031_10041" probability="30.0"/>
            <routeProbReroute id="7031_10670" probability="30.0"/>
        </interval>
    </rerouter>
    <route id="7259_-7031" edges="7259 -7031"/>
    <route id="7259_-7259" edges="7259 -7259"/>
    <route id="7259_10041" edges="7259 10041"/>
    <route id="7259_10670" edges="7259 10670"/>
    <rerouter id="rr_7259" edges="7259">
        <interval begin="0" end="3600">
            <routeProbReroute id="7259_-7031" probability="30.0"/>
            <routeProbReroute id="7259_-7259" probability="0"/>
            <routeProbReroute id="7259_10041" probability="30.0"/>
            <routeProbReroute id="7259_10670" probability="50.0"/>
        </interval>
    </rerouter>
    <route id="-10673_-10064" edges="-10673 -10064"/>
    <route id="-10673_10673" edges="-10673 10673"/>
    <route id="-10673_10675" edges="-10673 10675"/>
    <rerouter id="rr_-10673" edges="-10673">
        <interval begin="0" end="3600">
            <routeProbReroute id="-10673_-10064" probability="20.0"/>
            <routeProbReroute id="-10673_10673" probability="0"/>
            <routeProbReroute id="-10673_10675" probability="30.0"/>
        </interval>
    </rerouter>
    <route id="-10675_-10064" edges="-10675 -10064"/>
    <route id="-10675_10673" edges="-10675 10673"/>
    <route id="-10675_10675" edges="-10675 10675"/>
    <rerouter id="rr_-10675" edges="-10675">
        <interval begin="0" end="3600">
            <routeProbReroute id="-10675_-10064" probability="50.0"/>
            <routeProbReroute id="-10675_10673" probability="20.0"/>
            <routeProbReroute id="-10675_10675" probability="0"/>
        </interval>
    </rerouter>
    <route id="10064_-10064" edges="10064 -10064"/>
    <route id="10064_10673" edges="10064 10673"/>
    <route id="10064_10675" edges="10064 10675"/>
    <rerouter id="rr_10064" edges="10064">
        <interval begin="0" end="3600">
            <routeProbReroute id="10064_-10064" probability="0"/>
            <routeProbReroute id="10064_10673" probability="30.0"/>
            <routeProbReroute id="10064_10675" probability="50.0"/>
        </interval>
    </rerouter>
    <route id="-10064_-6518" edges="-10064 -6518"/>
    <route id="-10064_10064" edges="-10064 10064"/>
    <route id="-10064_7035" edges="-10064 7035"/>
    <route id="-10064_7039" edges="-10064 7039"/>
    <rerouter id="rr_-10064" edges="-10064">
        <interval begin="0" end="3600">
            <routeProbReroute id="-10064_-6518" probability="50.0"/>
            <routeProbReroute id="-10064_10064" probability="0"/>
            <routeProbReroute id="-10064_7035" probability="30.0"/>
            <routeProbReroute id="-10064_7039" probability="20.0"/>
        </interval>
    </rerouter>
    <route id="-7035_-6518" edges="-7035 -6518"/>
    <route id="-7035_10064" edges="-7035 10064"/>
    <route id="-7035_7035" edges="-7035 7035"/>
    <route id="-7035_7039" edges="-7035 7039"/>
    <rerouter id="rr_-7035" edges="-7035">
        <interval begin="0" end="3600">
            <routeProbReroute id="-7035_-6518" probability="30.0"/>
            <routeProbReroute id="-7035_10064" probability="20.0"/>
            <routeProbReroute id="-7035_7035" probability="0"/>
            <routeProbReroute id="-7035_7039" probability="50.0"/>
        </interval>
    </rerouter>
    <route id="-7039_-6518" edges="-7039 -6518"/>
    <route id="-7039_10064" edges="-7039 10064"/>
    <route id="-7039_7035" edges="-7039 7035"/>
    <route id="-7039_7039" edges="-7039 7039"/>
    <rerouter id="rr_-7039" edges="-7039">
        <interval begin="0" end="3600">
            <routeProbReroute id="-7039_-6518" probability="20.0"/>
            <routeProbReroute id="-7039_10064" probability="30.0"/>
            <routeProbReroute id="-7039_7035" probability="50.0"/>
            <routeProbReroute id="-7039_7039" probability="0"/>
        </interval>
    </rerouter>
    <route id="6518_-6518" edges="6518 -6518"/>
    <route id="6518_10064" edges="6518 10064"/>
    <route id="6518_7035" edges="6518 7035"/>
    <route id="6518_7039" edges="6518 7039"/>
    <rerouter id="rr_6518" edges="6518">
        <interval begin="0" end="3600">
            <routeProbReroute id="6518_-6518" probability="0"/>
            <routeProbReroute id="6518_10064" probability="50.0"/>
            <routeProbReroute id="6518_7035" probability="20.0"/>
            <routeProbReroute id="6518_7039" probability="30.0"/>
        </interval>
    </rerouter>
    <route id="-10681_-10078" edges="-10681 -10078"/>
    <route id="-10681_10681" edges="-10681 10681 -10681"/>
    <route id="-10681_10685" edges="-10681 10685 11520 -11520 -10685"/>
    <rerouter id="rr_-10681" edges="-10681">
        <interval begin="0" end="3600">
            <routeProbReroute id="-10681_-10078" probability="20.0"/>
            <routeProbReroute id="-10681_10681" probability="0"/>
            <routeProbReroute id="-10681_10685" probability="50.0"/>
        </interval>
    </rerouter>
    <route id="-10685_-10078" edges="-10685 -10078"/>
    <route id="-10685_10681" edges="-10685 10681 -10681"/>
    <route id="-10685_10685" edges="-10685 10685 11520 -11520 -10685"/>
    <rerouter id="rr_-10685" edges="-10685">
        <interval begin="0" end="3600">
            <routeProbReroute id="-10685_-10078" probability="30.0"/>
            <routeProbReroute id="-10685_10681" probability="50.0"/>
            <routeProbReroute id="-10685_10685" probability="0"/>
        </interval>
    </rerouter>
    <route id="10078_-10078" edges="10078 -10078"/>
    <route id="10078_10681" edges="10078 10681 -10681"/>
    <route id="10078_10685" edges="10078 10685 11520 -11520 -10685"/>
    <rerouter id="rr_10078" edges="10078">
        <interval begin="0" end="3600">
            <routeProbReroute id="10078_-10078" probability="0"/>
            <routeProbReroute id="10078_10681" probability="30.0"/>
            <routeProbReroute id="10078_10685" probability="20.0"/>
        </interval>
    </rerouter>
    <route id="-10078_-1606" edges="-10078 -1606"/>
    <route id="-10078_-338" edges="-10078 -338"/>
    <route id="-10078_10078" edges="-10078 10078"/>
    <route id="-10078_1178" edges="-10078 1178"/>
    <route id="-10078_1186" edges="-10078 1186"/>
    <rerouter id="rr_-10078" edges="-10078">
        <interval begin="0" end="3600">
            <routeProbReroute id="-10078_-1606" probability="20.0"/>
            <routeProbReroute id="-10078_-338" probability="50.0"/>