<?xml version="1.0" encoding="UTF-8"?>

<!-- generated on 2023-01-06 00:32:49 by Eclipse SUMO activitygen Version 1.15.0
<configuration xmlns:xsi="http://www.w3.org/2001/XMLSchema-instance" xsi:noNamespaceSchemaLocation="http://sumo.dlr.de/xsd/activitygenConfiguration.xsd">

    <input>
        <net-file value="simplegrid.net.xml"/>
        <stat-file value="stats.stat.xml"/>
    </input>

    <output>
        <output-file value="realisticTrips.trips.xml"/>
    </output>

    <random_number>
        <random value="true"/>
    </random_number>

</configuration>
-->

<routes xmlns:xsi="http://www.w3.org/2001/XMLSchema-instance" xsi:noNamespaceSchemaLocation="http://sumo.dlr.de/xsd/routes_file.xsd">
    <vType id="default" vClass="passenger" color="red"/>
    <vType id="random" vClass="passenger" color="blue"/>
    <vType id="bus" vClass="bus" color="green"/>

    <trip id="randUni440:1" type="random" depart="136.00" departPos="106.85" arrivalPos="276.01" arrivalSpeed="0.00" from="e34t24" to="e51t44"/>
    <trip id="randUni854:1" type="random" depart="340.00" departPos="7.29" arrivalPos="65.70" arrivalSpeed="0.00" from="e01t11" to="e33t43"/>
    <trip id="randUni978:1" type="random" depart="396.00" departPos="0.89" arrivalPos="218.87" arrivalSpeed="0.00" from="e24t23" to="e11t01"/>
    <trip id="randUni1217:1" type="random" depart="492.00" departPos="8.01" arrivalPos="134.89" arrivalSpeed="0.00" from="e41t42" to="e32t22"/>
    <trip id="randUni1082:1" type="random" depart="583.00" departPos="39.26" arrivalPos="106.18" arrivalSpeed="0.00" from="e33t23" to="e14t24"/>
    <trip id="randUni904:1" type="random" depart="927.00" departPos="67.74" arrivalPos="41.27" arrivalSpeed="0.00" from="e11t01" to="e23t13"/>
    <trip id="randUni761:1" type="random" depart="1027.00" departPos="120.84" arrivalPos="69.65" arrivalSpeed="0.00" from="e24t34" to="e33t32"/>
    <trip id="randUni107:1" type="random" depart="1122.00" departPos="9.86" arrivalPos="40.70" arrivalSpeed="0.00" from="e42t43" to="e13t23"/>
    <trip id="randUni425:1" type="random" depart="1257.00" departPos="154.30" arrivalPos="34.76" arrivalSpeed="0.00" from="e32t31" to="e31t21"/>
    <trip id="randUni172:1" type="random" depart="1261.00" departPos="79.30" arrivalPos="13.81" arrivalSpeed="0.00" from="e33t43" to="e41t31"/>
    <trip id="randUni1269:1" type="random" depart="1272.00" departPos="163.55" arrivalPos="110.07" arrivalSpeed="0.00" from="e21t22" to="e12t13"/>
    <trip id="randUni115:1" type="random" depart="1486.00" departPos="51.43" arrivalPos="132.15" arrivalSpeed="0.00" from="e43t44" to="e32t33"/>
    <trip id="randUni45:1" type="random" depart="1538.00" departPos="115.35" arrivalPos="46.96" arrivalSpeed="0.00" from="e14t24" to="e24t34"/>
    <trip id="randUni914:1" type="random" depart="1540.00" departPos="171.54" arrivalPos="24.78" arrivalSpeed="0.00" from="e14t24" to="e24t23"/>
    <trip id="randUni213:1" type="random" depart="1757.00" departPos="121.94" arrivalPos="12.13" arrivalSpeed="0.00" from="e24t23" to="e31t32"/>
    <trip id="randUni622:1" type="random" depart="2080.00" departPos="141.65" arrivalPos="53.29" arrivalSpeed="0.00" from="e21t31" to="e13t14"/>
    <trip id="randUni460:1" type="random" depart="2083.00" departPos="115.89" arrivalPos="252.83" arrivalSpeed="0.00" from="e14t13" to="e44t51"/>
    <trip id="randUni94:1" type="random" depart="2171.00" departPos="106.23" arrivalPos="9.23" arrivalSpeed="0.00" from="e24t34" to="e13t23"/>
    <trip id="randUni997:1" type="random" depart="2193.00" departPos="7.92" arrivalPos="110.95" arrivalSpeed="0.00" from="e22t21" to="e43t44"/>
    <trip id="randUni910:1" type="random" depart="2231.00" departPos="11.53" arrivalPos="66.57" arrivalSpeed="0.00" from="e24t34" to="e21t11"/>
    <trip id="randUni718:1" type="random" depart="2326.00" departPos="61.24" arrivalPos="47.05" arrivalSpeed="0.00" from="e32t31" to="e44t34"/>
    <trip id="randUni947:1" type="random" depart="2570.00" departPos="152.64" arrivalPos="173.79" arrivalSpeed="0.00" from="e34t44" to="e24t23"/>
    <trip id="randUni691:1" type="random" depart="2930.00" departPos="93.67" arrivalPos="115.64" arrivalSpeed="0.00" from="e11t01" to="e34t24"/>
    <trip id="randUni913:1" type="random" depart="2966.00" departPos="68.18" arrivalPos="14.74" arrivalSpeed="0.00" from="e44t34" to="e31t32"/>
    <trip id="randUni814:1" type="random" depart="2967.00" departPos="45.94" arrivalPos="95.28" arrivalSpeed="0.00" from="e32t22" to="e34t33"/>
    <trip id="randUni130:1" type="random" depart="3072.00" departPos="126.33" arrivalPos="157.01" arrivalSpeed="0.00" from="e31t32" to="e23t33"/>
    <trip id="randUni1243:1" type="random" depart="3072.00" departPos="78.63" arrivalPos="97.65" arrivalSpeed="0.00" from="e33t43" to="e24t23"/>
    <trip id="randUni33:1" type="random" depart="3171.00" departPos="151.17" arrivalPos="84.63" arrivalSpeed="0.00" from="e44t43" to="e33t32"/>
    <trip id="randUni1115:1" type="random" depart="3206.00" departPos="131.98" arrivalPos="50.12" arrivalSpeed="0.00" from="e23t13" to="e24t14"/>
    <trip id="randUni281:1" type="random" depart="3239.00" departPos="157.21" arrivalPos="59.95" arrivalSpeed="0.00" from="e33t43" to="e13t12"/>
    <trip id="randUni0:1" type="random" depart="3336.00" departPos="50.80" arrivalPos="98.74" arrivalSpeed="0.00" from="e22t12" to="e31t21"/>
    <trip id="randUni282:1" type="random" depart="3498.00" departPos="11.12" arrivalPos="100.47" arrivalSpeed="0.00" from="e32t22" to="e14t24"/>
    <trip id="randUni1093:1" type="random" depart="3609.00" departPos="1.51" arrivalPos="177.48" arrivalSpeed="0.00" from="e14t13" to="e32t33"/>
    <trip id="randUni330:1" type="random" depart="3615.00" departPos="21.44" arrivalPos="161.93" arrivalSpeed="0.00" from="e22t23" to="e21t22"/>
    <trip id="randUni525:1" type="random" depart="3735.00" departPos="24.21" arrivalPos="47.52" arrivalSpeed="0.00" from="e34t44" to="e42t41"/>
    <trip id="randUni184:1" type="random" depart="3807.00" departPos="16.48" arrivalPos="133.95" arrivalSpeed="0.00" from="e11t01" to="e23t33"/>
    <trip id="randUni540:1" type="random" depart="3886.00" departPos="129.51" arrivalPos="124.76" arrivalSpeed="0.00" from="e12t22" to="e33t32"/>
    <trip id="randUni751:1" type="random" depart="4168.00" departPos="42.71" arrivalPos="100.64" arrivalSpeed="0.00" from="e32t22" to="e43t44"/>
    <trip id="randUni1246:1" type="random" depart="4419.00" departPos="117.48" arrivalPos="39.91" arrivalSpeed="0.00" from="e31t21" to="e42t32"/>
    <trip id="randUni648:1" type="random" depart="4462.00" departPos="169.73" arrivalPos="49.17" arrivalSpeed="0.00" from="e31t21" to="e23t33"/>
    <trip id="randUni264:1" type="random" depart="4691.00" departPos="116.29" arrivalPos="138.16" arrivalSpeed="0.00" from="e44t34" to="e41t31"/>
    <trip id="randUni307:1" type="random" depart="4777.00" departPos="110.91" arrivalPos="74.79" arrivalSpeed="0.00" from="e12t22" to="e31t32"/>
    <trip id="randUni1151:1" type="random" depart="4838.00" departPos="30.91" arrivalPos="43.07" arrivalSpeed="0.00" from="e44t43" to="e22t32"/>
    <trip id="randUni1005:1" type="random" depart="4984.00" departPos="94.42" arrivalPos="158.78" arrivalSpeed="0.00" from="e42t43" to="e33t23"/>
    <trip id="randUni955:1" type="random" depart="5121.00" departPos="173.51" arrivalPos="85.61" arrivalSpeed="0.00" from="e21t31" to="e12t11"/>
    <trip id="randUni428:1" type="random" depart="5340.00" departPos="153.07" arrivalPos="82.45" arrivalSpeed="0.00" from="e21t22" to="e42t41"/>
    <trip id="randUni2:1" type="random" depart="5751.00" departPos="117.39" arrivalPos="90.67" arrivalSpeed="0.00" from="e23t13" to="e13t23"/>
    <trip id="randUni753:1" type="random" depart="5816.00" departPos="80.84" arrivalPos="15.44" arrivalSpeed="0.00" from="e23t33" to="e11t12"/>
    <trip id="randUni896:1" type="random" depart="5925.00" departPos="11.23" arrivalPos="106.94" arrivalSpeed="0.00" from="e23t33" to="e34t44"/>
    <trip id="randUni656:1" type="random" depart="6017.00" departPos="139.61" arrivalPos="108.60" arrivalSpeed="0.00" from="e33t32" to="e41t31"/>
    <trip id="randUni669:1" type="random" depart="6145.00" departPos="17.52" arrivalPos="167.39" arrivalSpeed="0.00" from="e44t43" to="e43t42"/>
    <trip id="randUni517:1" type="random" depart="6158.00" departPos="144.65" arrivalPos="131.99" arrivalSpeed="0.00" from="e32t31" to="e41t31"/>
    <trip id="randUni160:1" type="random" depart="6257.00" departPos="156.86" arrivalPos="110.38" arrivalSpeed="0.00" from="e44t43" to="e21t31"/>
    <trip id="randUni96:1" type="random" depart="6552.00" departPos="22.06" arrivalPos="81.44" arrivalSpeed="0.00" from="e13t23" to="e22t23"/>
    <trip id="randUni566:1" type="random" depart="6755.00" departPos="128.30" arrivalPos="94.40" arrivalSpeed="0.00" from="e41t31" to="e33t23"/>
    <trip id="randUni575:1" type="random" depart="6878.00" departPos="120.60" arrivalPos="152.01" arrivalSpeed="0.00" from="e33t34" to="e32t22"/>
    <trip id="randUni333:1" type="random" depart="7006.00" departPos="6.52" arrivalPos="114.04" arrivalSpeed="0.00" from="e31t32" to="e21t22"/>
    <trip id="randUni117:1" type="random" depart="7163.00" departPos="59.91" arrivalPos="71.51" arrivalSpeed="0.00" from="e43t42" to="e13t23"/>
    <trip id="randUni1011:1" type="random" depart="7291.00" departPos="46.31" arrivalPos="114.87" arrivalSpeed="0.00" from="e01t11" to="e12t22"/>
    <trip id="randUni959:1" type="random" depart="7327.00" departPos="17.72" arrivalPos="156.85" arrivalSpeed="0.00" from="e33t43" to="e21t11"/>
    <trip id="randUni1015:1" type="random" depart="7342.00" departPos="60.48" arrivalPos="110.44" arrivalSpeed="0.00" from="e21t22" to="e13t12"/>
    <trip id="randUni829:1" type="random" depart="7410.00" departPos="69.03" arrivalPos="13.81" arrivalSpeed="0.00" from="e11t12" to="e23t33"/>
    <trip id="randUni865:1" type="random" depart="7439.00" departPos="83.81" arrivalPos="70.37" arrivalSpeed="0.00" from="e43t33" to="e34t44"/>
    <trip id="randUni939:1" type="random" depart="7626.00" departPos="75.84" arrivalPos="5.18" arrivalSpeed="0.00" from="e31t32" to="e21t22"/>
    <trip id="randUni868:1" type="random" depart="8022.00" departPos="115.29" arrivalPos="95.74" arrivalSpeed="0.00" from="e32t33" to="e21t11"/>
    <trip id="randUni134:1" type="random" depart="8070.00" departPos="47.11" arrivalPos="161.67" arrivalSpeed="0.00" from="e34t33" to="e33t23"/>
    <trip id="randUni1053:1" type="random" depart="8151.00" departPos="71.86" arrivalPos="88.06" arrivalSpeed="0.00" from="e01t11" to="e11t12"/>
    <trip id="randUni91:1" type="random" depart="8303.00" departPos="67.98" arrivalPos="174.36" arrivalSpeed="0.00" from="e24t23" to="e21t22"/>
    <trip id="randUni506:1" type="random" depart="8365.00" departPos="78.23" arrivalPos="76.44" arrivalSpeed="0.00" from="e42t32" to="e12t22"/>
    <trip id="randUni1201:1" type="random" depart="8406.00" departPos="77.13" arrivalPos="84.17" arrivalSpeed="0.00" from="e24t23" to="e01t11"/>
    <trip id="randUni419:1" type="random" depart="8523.00" departPos="0.53" arrivalPos="142.03" arrivalSpeed="0.00" from="e22t12" to="e13t14"/>
    <trip id="randUni804:1" type="random" depart="8770.00" departPos="23.99" arrivalPos="83.67" arrivalSpeed="0.00" from="e23t33" to="e21t31"/>
    <trip id="randUni590:1" type="random" depart="8774.00" departPos="33.23" arrivalPos="95.26" arrivalSpeed="0.00" from="e24t14" to="e42t32"/>
    <trip id="randUni1288:1" type="random" depart="8795.00" departPos="162.11" arrivalPos="81.14" arrivalSpeed="0.00" from="e32t33" to="e34t33"/>
    <trip id="randUni183:1" type="random" depart="8882.00" departPos="27.85" arrivalPos="82.96" arrivalSpeed="0.00" from="e41t31" to="e11t01"/>
    <trip id="randUni118:1" type="random" depart="9079.00" departPos="126.60" arrivalPos="62.00" arrivalSpeed="0.00" from="e24t23" to="e34t44"/>
    <trip id="randUni1031:1" type="random" depart="9485.00" departPos="10.69" arrivalPos="101.66" arrivalSpeed="0.00" from="e31t32" to="e13t23"/>
    <trip id="randUni422:1" type="random" depart="9681.00" departPos="123.69" arrivalPos="36.58" arrivalSpeed="0.00" from="e43t33" to="e11t12"/>
    <trip id="randUni813:1" type="random" depart="9687.00" departPos="33.04" arrivalPos="177.21" arrivalSpeed="0.00" from="e21t31" to="e24t34"/>
    <trip id="randUni24:1" type="random" depart="9964.00" departPos="149.79" arrivalPos="173.92" arrivalSpeed="0.00" from="e21t11" to="e34t44"/>
    <trip id="randUni523:1" type="random" depart="10022.00" departPos="38.67" arrivalPos="0.64" arrivalSpeed="0.00" from="e13t14" to="e22t12"/>
    <trip id="randUni917:1" type="random" depart="10158.00" departPos="175.18" arrivalPos="1.52" arrivalSpeed="0.00" from="e34t24" to="e34t24"/>
    <trip id="randUni1063:1" type="random" depart="10699.00" departPos="146.83" arrivalPos="108.38" arrivalSpeed="0.00" from="e33t43" to="e31t41"/>
    <trip id="randUni308:1" type="random" depart="10837.00" departPos="59.96" arrivalPos="13.83" arrivalSpeed="0.00" from="e11t21" to="e43t44"/>
    <trip id="randUni953:1" type="random" depart="10973.00" departPos="92.20" arrivalPos="161.63" arrivalSpeed="0.00" from="e24t23" to="e41t42"/>
    <trip id="randUni933:1" type="random" depart="11064.00" departPos="147.72" arrivalPos="120.70" arrivalSpeed="0.00" from="e13t12" to="e42t32"/>
    <trip id="randUni919:1" type="random" depart="11133.00" departPos="98.03" arrivalPos="63.59" arrivalSpeed="0.00" from="e13t23" to="e33t32"/>
    <trip id="randUni944:1" type="random" depart="11177.00" departPos="117.22" arrivalPos="63.46" arrivalSpeed="0.00" from="e13t23" to="e13t14"/>
    <trip id="randUni123:1" type="random" depart="11453.00" departPos="78.74" arrivalPos="45.17" arrivalSpeed="0.00" from="e43t42" to="e32t42"/>
    <trip id="randUni225:1" type="random" depart="11460.00" departPos="141.25" arrivalPos="0.79" arrivalSpeed="0.00" from="e31t21" to="e23t24"/>
    <trip id="randUni1008:1" type="random" depart="11526.00" departPos="46.11" arrivalPos="87.57" arrivalSpeed="0.00" from="e34t24" to="e33t34"/>
    <trip id="randUni1001:1" type="random" depart="11530.00" departPos="121.30" arrivalPos="128.96" arrivalSpeed="0.00" from="e12t13" to="e11t01"/>
    <trip id="randUni991:1" type="random" depart="11804.00" departPos="154.00" arrivalPos="164.38" arrivalSpeed="0.00" from="e12t22" to="e41t42"/>
    <trip id="randUni564:1" type="random" depart="11960.00" departPos="139.55" arrivalPos="4.29" arrivalSpeed="0.00" from="e24t34" to="e21t31"/>
    <trip id="randUni888:1" type="random" depart="12042.00" departPos="34.86" arrivalPos="67.20" arrivalSpeed="0.00" from="e24t23" to="e41t31"/>
    <trip id="randUni1039:1" type="random" depart="12213.00" departPos="96.28" arrivalPos="21.19" arrivalSpeed="0.00" from="e21t31" to="e24t23"/>
    <trip id="randUni244:1" type="random" depart="12293.00" departPos="91.47" arrivalPos="26.04" arrivalSpeed="0.00" from="e33t32" to="e23t33"/>
    <trip id="randUni859:1" type="random" depart="12442.00" departPos="70.43" arrivalPos="117.53" arrivalSpeed="0.00" from="e12t11" to="e33t32"/>
    <trip id="randUni311:1" type="random" depart="12585.00" departPos="151.74" arrivalPos="152.60" arrivalSpeed="0.00" from="e23t33" to="e14t24"/>
    <trip id="randUni1285:1" type="random" depart="12804.00" departPos="232.42" arrivalPos="109.99" arrivalSpeed="0.00" from="e44t51" to="e24t23"/>
    <trip id="randUni598:1" type="random" depart="13039.00" departPos="119.84" arrivalPos="113.25" arrivalSpeed="0.00" from="e21t11" to="e12t13"/>
    <trip id="randUni513:1" type="random" depart="13249.00" departPos="53.50" arrivalPos="18.30" arrivalSpeed="0.00" from="e22t12" to="e33t32"/>
    <trip id="randUni133:1" type="random" depart="13270.00" departPos="35.31" arrivalPos="100.31" arrivalSpeed="0.00" from="e32t33" to="e32t22"/>
    <trip id="randUni276:1" type="random" depart="13292.00" departPos="123.38" arrivalPos="137.74" arrivalSpeed="0.00" from="e31t21" to="e22t21"/>
    <trip id="randUni515:1" type="random" depart="13294.00" departPos="121.04" arrivalPos="88.51" arrivalSpeed="0.00" from="e33t23" to="e33t23"/>
    <trip id="randUni905:1" type="random" depart="13299.00" departPos="53.84" arrivalPos="138.65" arrivalSpeed="0.00" from="e12t11" to="e21t11"/>
    <trip id="randUni153:1" type="random" depart="13373.00" departPos="55.69" arrivalPos="161.25" arrivalSpeed="0.00" from="e33t34" to="e42t43"/>
    <trip id="randUni162:1" type="random" depart="13598.00" departPos="82.33" arrivalPos="157.20" arrivalSpeed="0.00" from="e23t24" to="e21t22"/>
    <trip id="randUni1220:1" type="random" depart="13620.00" departPos="38.33" arrivalPos="97.28" arrivalSpeed="0.00" from="e23t33" to="e22t12"/>
    <trip id="randUni527:1" type="random" depart="13879.00" departPos="88.03" arrivalPos="40.12" arrivalSpeed="0.00" from="e24t23" to="e21t22"/>
    <trip id="randUni1303:1" type="random" depart="13976.00" departPos="164.74" arrivalPos="162.54" arrivalSpeed="0.00" from="e34t24" to="e21t31"/>
    <trip id="randUni1050:1" type="random" depart="14003.00" departPos="28.97" arrivalPos="175.75" arrivalSpeed="0.00" from="e11t12" to="e22t12"/>
    <trip id="randUni1137:1" type="random" depart="14027.00" departPos="18.58" arrivalPos="11.09" arrivalSpeed="0.00" from="e42t43" to="e32t31"/>
    <trip id="randUni1245:1" type="random" depart="14060.00" departPos="117.96" arrivalPos="141.87" arrivalSpeed="0.00" from="e42t41" to="e23t33"/>
    <trip id="randUni37:1" type="random" depart="14248.00" departPos="78.77" arrivalPos="122.40" arrivalSpeed="0.00" from="e21t31" to="e12t11"/>
    <trip id="randUni1164:1" type="random" depart="14273.00" departPos="60.59" arrivalPos="116.32" arrivalSpeed="0.00" from="e12t13" to="e43t44"/>
    <trip id="randUni623:1" type="random" depart="14714.00" departPos="44.85" arrivalPos="64.88" arrivalSpeed="0.00" from="e11t12" to="e31t32"/>
    <trip id="randUni326:1" type="random" depart="14928.00" departPos="28.98" arrivalPos="106.19" arrivalSpeed="0.00" from="e13t12" to="e33t34"/>
    <trip id="randUni824:1" type="random" depart="15041.00" departPos="81.86" arrivalPos="80.36" arrivalSpeed="0.00" from="e34t44" to="e22t21"/>
    <trip id="randUni482:1" type="random" depart="15122.00" departPos="44.71" arrivalPos="33.21" arrivalSpeed="0.00" from="e34t44" to="e01t11"/>
    <trip id="randUni121:1" type="random" depart="15175.00" departPos="75.03" arrivalPos="88.80" arrivalSpeed="0.00" from="e42t43" to="e33t32"/>
    <trip id="randUni952:1" type="random" depart="15285.00" departPos="112.25" arrivalPos="4.95" arrivalSpeed="0.00" from="e44t34" to="e12t13"/>
    <trip id="randUni706:1" type="random" depart="16024.00" departPos="23.56" arrivalPos="126.14" arrivalSpeed="0.00" from="e41t31" to="e42t32"/>
    <trip id="randUni232:1" type="random" depart="16112.00" departPos="33.36" arrivalPos="250.02" arrivalSpeed="0.00" from="e31t32" to="e44t51"/>
    <trip id="randUni1154:1" type="random" depart="16155.00" departPos="15.66" arrivalPos="124.31" arrivalSpeed="0.00" from="e11t21" to="e44t43"/>
    <trip id="randUni911:1" type="random" depart="16222.00" departPos="43.79" arrivalPos="118.96" arrivalSpeed="0.00" from="e32t22" to="e11t12"/>
    <trip id="randUni789:1" type="random" depart="16685.00" departPos="92.14" arrivalPos="83.58" arrivalSpeed="0.00" from="e42t32" to="e32t42"/>
    <trip id="randUni293:1" type="random" depart="16739.00" departPos="137.89" arrivalPos="145.26" arrivalSpeed="0.00" from="e43t33" to="e14t13"/>
    <trip id="randUni620:1" type="random" depart="16825.00" departPos="59.20" arrivalPos="134.22" arrivalSpeed="0.00" from="e21t22" to="e24t14"/>
    <trip id="randUni78:1" type="random" depart="16900.00" departPos="145.92" arrivalPos="165.96" arrivalSpeed="0.00" from="e13t23" to="e41t31"/>
    <trip id="randUni936:1" type="random" depart="17146.00" departPos="118.18" arrivalPos="73.73" arrivalSpeed="0.00" from="e14t24" to="e22t23"/>
    <trip id="randUni388:1" type="random" depart="17438.00" departPos="101.75" arrivalPos="158.61" arrivalSpeed="0.00" from="e22t12" to="e22t23"/>
    <trip id="randUni67:1" type="random" depart="17487.00" departPos="97.80" arrivalPos="176.15" arrivalSpeed="0.00" from="e22t23" to="e13t14"/>
    <trip id="randUni394:1" type="random" depart="17521.00" departPos="22.87" arrivalPos="26.04" arrivalSpeed="0.00" from="e23t13" to="e42t41"/>
    <trip id="randUni723:1" type="random" depart="17569.00" departPos="98.73" arrivalPos="57.22" arrivalSpeed="0.00" from="e22t21" to="e31t21"/>
    <trip id="randUni61:1" type="random" depart="17762.00" departPos="21.43" arrivalPos="150.76" arrivalSpeed="0.00" from="e34t24" to="e21t11"/>
    <trip id="randUni58:1" type="random" depart="18107.00" departPos="71.26" arrivalPos="126.04" arrivalSpeed="0.00" from="e21t11" to="e11t12"/>
    <trip id="randUni772:1" type="random" depart="18117.00" departPos="16.23" arrivalPos="165.35" arrivalSpeed="0.00" from="e32t22" to="e12t22"/>
    <trip id="randUni1026:1" type="random" depart="18506.00" departPos="169.48" arrivalPos="150.85" arrivalSpeed="0.00" from="e32t33" to="e01t11"/>
    <trip id="randUni1040:1" type="random" depart="18599.00" departPos="137.32" arrivalPos="51.52" arrivalSpeed="0.00" from="e21t31" to="e23t22"/>
    <trip id="randUni957:1" type="random" depart="18792.00" departPos="64.00" arrivalPos="106.79" arrivalSpeed="0.00" from="e24t23" to="e43t42"/>
    <trip id="randUni1178:1" type="random" depart="18991.00" departPos="136.35" arrivalPos="83.82" arrivalSpeed="0.00" from="e14t24" to="e24t14"/>
    <trip id="randUni869:1" type="random" depart="19033.00" departPos="42.60" arrivalPos="10.32" arrivalSpeed="0.00" from="e41t42" to="e42t41"/>
    <trip id="randUni1252:1" type="random" depart="19205.00" departPos="122.67" arrivalPos="22.56" arrivalSpeed="0.00" from="e22t21" to="e23t13"/>
    <trip id="randUni544:1" type="random" depart="19219.00" departPos="60.20" arrivalPos="24.93" arrivalSpeed="0.00" from="e21t22" to="e13t23"/>
    <trip id="randUni1071:1" type="random" depart="19490.00" departPos="89.72" arrivalPos="61.44" arrivalSpeed="0.00" from="e42t32" to="e42t41"/>
    <trip id="randUni165:1" type="random" depart="19698.00" departPos="159.12" arrivalPos="3.76" arrivalSpeed="0.00" from="e43t44" to="e12t22"/>
    <trip id="randUni1044:1" type="random" depart="19833.00" departPos="73.50" arrivalPos="58.73" arrivalSpeed="0.00" from="e12t22" to="e21t31"/>
    <trip id="randUni708:1" type="random" depart="19868.00" departPos="108.78" arrivalPos="15.66" arrivalSpeed="0.00" from="e44t51" to="e21t31"/>
    <trip id="randUni1010:1" type="random" depart="19904.00" departPos="205.39" arrivalPos="109.82" arrivalSpeed="0.00" from="e01t11" to="e41t31"/>
    <trip id="randUni149:1" type="random" depart="19913.00" departPos="150.20" arrivalPos="68.31" arrivalSpeed="0.00" from="e32t31" to="e33t32"/>
    <trip id="randUni818:1" type="random" depart="20025.00" departPos="84.18" arrivalPos="101.59" arrivalSpeed="0.00" from="e32t33" to="e01t11"/>
    <trip id="randUni654:1" type="random" depart="20027.00" departPos="11.43" arrivalPos="9.54" arrivalSpeed="0.00" from="e01t11" to="e43t33"/>
    <trip id="randUni1018:1" type="random" depart="20227.00" departPos="114.62" arrivalPos="18.10" arrivalSpeed="0.00" from="e13t12" to="e32t22"/>
    <trip id="randUni196:1" type="random" depart="20346.00" departPos="45.24" arrivalPos="89.35" arrivalSpeed="0.00" from="e32t33" to="e31t41"/>
    <trip id="randUni23:1" type="random" depart="20359.00" departPos="52.08" arrivalPos="112.54" arrivalSpeed="0.00" from="e32t22" to="e21t22"/>
    <trip id="randUni158:1" type="random" depart="20454.00" departPos="86.09" arrivalPos="178.80" arrivalSpeed="0.00" from="e33t32" to="e13t12"/>
    <trip id="randUni727:1" type="random" depart="20675.00" departPos="162.07" arrivalPos="24.41" arrivalSpeed="0.00" from="e51t44" to="e34t44"/>
    <trip id="randUni1134:1" type="random" depart="21003.00" departPos="119.56" arrivalPos="115.13" arrivalSpeed="0.00" from="e14t13" to="e33t23"/>
    <trip id="randUni891:1" type="random" depart="21142.00" departPos="25.35" arrivalPos="97.18" arrivalSpeed="0.00" from="e34t24" to="e23t24"/>
    <trip id="randUni421:1" type="random" depart="21592.00" departPos="125.89" arrivalPos="145.23" arrivalSpeed="0.00" from="e14t24" to="e43t44"/>
    <trip id="bl101b1:1" type="bus" depart="21600.00" departPos="10.00" arrivalPos="10.00" arrivalSpeed="0.00" from="e11t12" via="e13t14 e14t24 e24t23 e23t33 e33t32 e32t31" to="e31t21"/>
    <trip id="bl101b2:27" type="bus" depart="21600.00" departPos="10.00" arrivalPos="10.00" arrivalSpeed="0.00" from="e21t31" via="e31t32 e32t33 e33t23 e23t24 e24t14 e14t13" to="e13t12"/>
    <trip id="randUni1260:1" type="random" depart="21655.00" departPos="97.57" arrivalPos="48.48" arrivalSpeed="0.00" from="e11t01" to="e31t21"/>
    <trip id="randUni907:1" type="random" depart="21685.00" departPos="146.73" arrivalPos="79.79" arrivalSpeed="0.00" from="e44t43" to="e41t31"/>
    <trip id="randUni539:1" type="random" depart="21688.00" departPos="100.19" arrivalPos="127.70" arrivalSpeed="0.00" from="e12t13" to="e34t24"/>
    <trip id="randUni1116:1" type="random" depart="21755.00" departPos="54.37" arrivalPos="53.91" arrivalSpeed="0.00" from="e31t41" to="e12t13"/>
    <trip id="randUni909:1" type="random" depart="21898.00" departPos="178.26" arrivalPos="20.79" arrivalSpeed="0.00" from="e42t41" to="e24t23"/>
    <trip id="bl101b3:1" type="bus" depart="21900.00" departPos="10.00" arrivalPos="10.00" arrivalSpeed="0.00" from="e11t12" via="e13t14 e14t24 e24t23 e23t33 e33t32 e32t31" to="e31t21"/>
    <trip id="bl101b4:27" type="bus" depart="21900.00" departPos="10.00" arrivalPos="10.00" arrivalSpeed="0.00" from="e21t31" via="e31t32 e32t33 e33t23 e23t24 e24t14 e14t13" to="e13t12"/>
    <trip id="randUni1138:1" type="random" depart="21938.00" departPos="127.48" arrivalPos="96.93" arrivalSpeed="0.00" from="e43t44" to="e21t22"/>
    <trip id="randUni742:1" type="random" depart="22031.00" departPos="64.04" arrivalPos="50.01" arrivalSpeed="0.00" from="e32t42" to="e21t22"/>
    <trip id="randUni124:1" type="random" depart="22147.00" departPos="157.62" arrivalPos="30.59" arrivalSpeed="0.00" from="e14t24" to="e12t13"/>
    <trip id="bl101b5:1" type="bus" depart="22200.00" departPos="10.00" arrivalPos="10.00" arrivalSpeed="0.00" from="e11t12" via="e13t14 e14t24 e24t23 e23t33 e33t32 e32t31" to="e31t21"/>
    <trip id="bl101b6:27" type="bus" depart="22200.00" departPos="10.00" arrivalPos="10.00" arrivalSpeed="0.00" from="e21t31" via="e31t32 e32t33 e33t23 e23t24 e24t14 e14t13" to="e13t12"/>
    <trip id="randUni1296:1" type="random" depart="22208.00" departPos="128.62" arrivalPos="73.20" arrivalSpeed="0.00" from="e42t41" to="e34t44"/>
    <trip id="randUni168:1" type="random" depart="22498.00" departPos="170.22" arrivalPos="74.16" arrivalSpeed="0.00" from="e13t12" to="e32t42"/>
    <trip id="bl101b7:1" type="bus" depart="22500.00" departPos="10.00" arrivalPos="10.00" arrivalSpeed="0.00" from="e11t12" via="e13t14 e14t24 e24t23 e23t33 e33t32 e32t31" to="e31t21"/>
    <trip id="bl101b8:27" type="bus" depart="22500.00" departPos="10.00" arrivalPos="10.00" arrivalSpeed="0.00" from="e21t31" via="e31t32 e32t33 e33t23 e23t24 e24t14 e14t13" to="e13t12"/>
    <trip id="randUni816:1" type="random" depart="22646.00" departPos="90.62" arrivalPos="37.73" arrivalSpeed="0.00" from="e32t33" to="e44t34"/>
    <trip id="randUni27:1" type="random" depart="22766.00" departPos="38.94" arrivalPos="108.34" arrivalSpeed="0.00" from="e24t14" to="e12t11"/>
    <trip id="randUni29:1" type="random" depart="22771.00" departPos="26.26" arrivalPos="167.20" arrivalSpeed="0.00" from="e24t14" to="e23t33"/>
    <trip id="bl101b2:1" type="bus" depart="22800.00" departPos="10.00" arrivalPos="10.00" arrivalSpeed="0.00" from="e11t12" via="e13t14 e14t24 e24t23 e23t33 e33t32 e32t31" to="e31t21"/>
    <trip id="bl101b1:29" type="bus" depart="22800.00" departPos="10.00" arrivalPos="10.00" arrivalSpeed="0.00" from="e21t31" via="e31t32 e32t33 e33t23 e23t24 e24t14 e14t13" to="e13t12"/>
    <trip id="randUni461:1" type="random" depart="22875.00" departPos="145.94" arrivalPos="125.35" arrivalSpeed="0.00" from="e23t13" to="e24t34"/>
    <trip id="randUni392:1" type="random" depart="22913.00" departPos="18.08" arrivalPos="50.29" arrivalSpeed="0.00" from="e41t42" to="e44t51"/>
    <trip id="randUni272:1" type="random" depart="22927.00" departPos="138.30" arrivalPos="144.31" arrivalSpeed="0.00" from="e21t11" to="e21t11"/>
    <trip id="randUni923:1" type="random" depart="22984.00" departPos="136.13" arrivalPos="171.90" arrivalSpeed="0.00" from="e12t13" to="e42t43"/>
    <trip id="bl101b4:1" type="bus" depart="23100.00" departPos="10.00" arrivalPos="10.00" arrivalSpeed="0.00" from="e11t12" via="e13t14 e14t24 e24t23 e23t33 e33t32 e32t31" to="e31t21"/>
    <trip id="bl101b3:29" type="bus" depart="23100.00" departPos="10.00" arrivalPos="10.00" arrivalSpeed="0.00" from="e21t31" via="e31t32 e32t33 e33t23 e23t24 e24t14 e14t13" to="e13t12"/>
    <trip id="bl101b6:1" type="bus" depart="23400.00" departPos="10.00" arrivalPos="10.00" arrivalSpeed="0.00" from="e11t12" via="e13t14 e14t24 e24t23 e23t33 e33t32 e32t31" to="e31t21"/>
    <trip id="bl101b5:27" type="bus" depart="23400.00" departPos="10.00" arrivalPos="10.00" arrivalSpeed="0.00" from="e21t31" via="e31t32 e32t33 e33t23 e23t24 e24t14 e14t13" to="e13t12"/>
    <trip id="randUni437:1" type="random" depart="23579.00" departPos="181.20" arrivalPos="54.08" arrivalSpeed="0.00" from="e41t42" to="e11t01"/>
    <trip id="randUni782:1" type="random" depart="23590.00" departPos="82.33" arrivalPos="77.34" arrivalSpeed="0.00" from="e12t13" to="e34t44"/>
    <trip id="randUni1126:1" type="random" depart="23627.00" departPos="147.78" arrivalPos="15.30" arrivalSpeed="0.00" from="e23t33" to="e13t23"/>